21
conf-950
 N  -0.90609349   15.15518720  -5.35021104
 C  -1.57982004   14.12565483  -4.56440761
 C  -0.60031673   13.00042934  -4.19264231
 O   0.40053120   13.27021866  -3.54243162
 C  -2.84799053   13.65449645  -5.26864960
 C  -3.89775983   14.72276581  -5.41771224
 C  -4.48215759   15.31426844  -4.30273577
 C  -4.31220532   15.12745767  -6.68310230
 C  -5.46507159   16.28986722  -4.44488561
 C  -5.28560910   16.11176621  -6.83733855
 C  -5.86505858   16.69587873  -5.71570936
 H  -0.60743662   14.76338212  -6.23883450
 H  -1.86087679   14.59128291  -3.61563892
 H  -3.26580257   12.81043506  -4.71326143
 H  -2.57467557   13.29029580  -6.26090370
 H  -4.16229050   15.00049126  -3.31540418
 H  -3.86444040   14.66830599  -7.55783973
 H  -5.90938739   16.73532125  -3.56127282
 H  -5.59001068   16.41558774  -7.83287985
 H  -6.62577957   17.46038261  -5.82854766
 H  -0.06328801   15.43164566  -4.85785107
 N  -0.88489755   11.74358840  -4.62022194
 C   0.13328130   10.69773468  -4.46294155
 C  -0.14182243   9.61992242  -5.49909693
 O   0.71446251   9.20601450  -6.26177283
 C   0.15072321   10.14142944  -3.04543399
 C   1.14497585   8.99593670  -2.82681235
 C   2.54354987   9.37426224  -3.31094448
 C   1.15662896   8.60852953  -1.35076081
 H  -1.52088216   11.63594060  -5.39732832
 H   1.10870368   11.13919624  -4.68742833
 H   0.39208587   10.96801472  -2.37909679
 H  -0.85080286   9.80252879  -2.78012513
 H   0.80826311   8.12784645  -3.40359146
 H   2.57214726   9.51039248  -4.39202517
 H   2.86521402   10.30701322  -2.83537160
 H   3.26327862   8.59440108  -3.05271622
 H   1.51660937   9.44278291  -0.74420606
 H   0.15384675   8.34391479  -1.00722011
 H   1.81022771   7.75123416  -1.17518103
 N  -1.43225192   9.14565086  -5.48758272
 C  -1.99630905   8.71834342  -6.76185802
 C  -2.43199925   9.97106026  -7.54053576
 O  -2.53875369   11.06158345  -6.98701440
 C  -3.14429744   7.74120737  -6.52659675
 C  -3.54371206   6.97786943  -7.78061041
 N  -4.74760362   6.35505463  -7.72864764
 O  -2.81854964   6.90786795  -8.76368010
 H  -2.06498195   9.71227920  -4.95115291
 H  -1.20824551   8.20673908  -7.30913831
 H  -2.79763935   7.00708532  -5.79622754
 H  -4.00863412   8.24577985  -6.08553577
 H  -5.04633745   5.85002102  -8.54406713
 H  -5.35342871   6.43075214  -6.93211144
 N  -2.69711772   9.79823844  -8.85015670
 C  -3.14614787   10.86755045  -9.71747284
 C  -2.13489532   11.97679178  -9.94355832
 O  -2.42932950   12.95715388  -10.60132518
 C  -4.52840400   11.42852468  -9.30680415
 C  -5.65923546   10.77238732  -10.10123276
 C  -5.93312309   11.43578148  -11.45493346
 N  -4.67217036   11.91389917  -12.04794152
 C  -4.46638411   12.20380939  -13.31928121
 N  -5.41235056   12.02575967  -14.27321576
 N  -3.26128667   12.68246942  -13.71088935
 O  -0.91525170   11.76570373  -9.44987939
 H  -0.37970598   12.53670838  -9.68715398
 H  -2.58862839   8.86581565  -9.23863340
 H  -3.23434984   10.41006429  -10.70496502
 H  -4.54609545   12.51038532  -9.45424228
 H  -4.66224284   11.27238166  -8.23718121
 H  -5.42781981   9.71417014  -10.25621566
 H  -6.58602292   10.79759129  -9.52056656
 H  -6.40452800   10.70739981  -12.12002762
 H  -6.62113058   12.27702616  -11.34807373
 H  -4.06501488   12.44239990  -11.42782980
 H  -5.05985882   11.79404023  -15.19246156
 H  -6.23416178   11.50649074  -13.99750252
 H  -3.26659625   13.28269605  -14.52221835
 H  -2.63776261   12.97320369  -12.96258593
