21
conf-962
 N  -2.68638268   11.77186299  -4.10615805
 C  -2.55232561   10.30742429  -4.00070702
 C  -1.18361155   9.92159770  -4.56650018
 O  -0.21559724   9.79910429  -3.83395385
 C  -3.72899181   9.63037818  -4.69701183
 C  -5.05309248   10.03330000  -4.11048966
 C  -5.57634200   9.39913039  -2.98518095
 C  -5.76401214   11.09376731  -4.67023437
 C  -6.78468295   9.81726305  -2.43212437
 C  -6.96675303   11.52462003  -4.11670832
 C  -7.48150387   10.88341410  -2.99498355
 H  -3.55834459   12.05108340  -3.66795172
 H  -2.53721347   9.99248490  -2.95315262
 H  -3.59974071   8.55172249  -4.62589782
 H  -3.72509792   9.89321291  -5.76099237
 H  -5.03707455   8.56816524  -2.54262651
 H  -5.35207691   11.60825511  -5.53055655
 H  -7.17706323   9.30838896  -1.55896040
 H  -7.49295648   12.35735936  -4.56731263
 H  -8.42011180   11.21140131  -2.56248213
 H  -1.93804389   12.22426252  -3.58901620
 N  -1.13187950   9.76920552  -5.92350993
 C   0.15368052   9.72770699  -6.63458738
 C  -0.13236406   10.03404353  -8.10179139
 O   0.52345853   10.84696506  -8.75567060
 C   0.85134341   8.38564563  -6.47812400
 C   2.14977274   8.26100505  -7.28052713
 C   3.11862144   9.39564951  -6.95277225
 C   2.78503224   6.89873000  -7.01675465
 H  -1.84596473   10.25937628  -6.42760944
 H   0.78983033   10.52419775  -6.24211364
 H   1.05606996   8.23820435  -5.41992095
 H   0.16276423   7.59721302  -6.78144059
 H   1.90596720   8.32322261  -8.34521427
 H   2.72664431   10.36310614  -7.26395110
 H   3.31099658   9.42940399  -5.87543522
 H   4.07162550   9.24337464  -7.46412320
 H   3.06451963   6.80818263  -5.96444044
 H   2.09048374   6.09048008  -7.25717592
 H   3.68346840   6.76228293  -7.62256621
 N  -1.15679385   9.30077119  -8.62985600
 C  -1.82904518   9.77665627  -9.83868274
 C  -2.82950632   10.85976624  -9.43635402
 O  -3.97783824   10.59972053  -9.08922771
 C  -2.51612165   8.62795057  -10.55236300
 C  -2.86591409   9.01089044  -11.98351477
 N  -3.98547470   8.42222124  -12.48240595
 O  -2.15960883   9.75357302  -12.64151403
 H  -1.72466201   8.82135321  -7.95569263
 H  -1.06170580   10.20742354  -10.48050767
 H  -1.81027524   7.80024160  -10.61446099
 H  -3.39199255   8.28992357  -9.99592271
 H  -4.25211808   8.65117665  -13.42359487
 H  -4.57442864   7.83762864  -11.92146162
 N  -2.32945426   12.12287158  -9.41341101
 C  -3.04702444   13.22128559  -8.78862417
 C  -3.36529062   12.95628668  -7.30690751
 O  -4.24250181   13.55284936  -6.71372185
 C  -4.29683286   13.65473880  -9.57286229
 C  -4.19131398   15.04381638  -10.19692259
 C  -3.70161925   16.14595952  -9.26805984
 N  -4.44159702   16.12272137  -7.99358905
 C  -4.07561087   16.86402269  -6.94760892
 N  -3.32807666   17.97620119  -7.13783863
 N  -4.47892412   16.51584462  -5.70695783
 O  -2.57248533   12.07817570  -6.73931111
 H  -2.67852401   12.08750796  -5.72083914
 H  -1.32803812   12.23095593  -9.50475703
 H  -2.31900293   14.03251598  -8.75563140
 H  -5.15976111   13.61578908  -8.90822486
 H  -4.49455354   12.92563638  -10.35595504
 H  -3.51702849   15.00664738  -11.06117037
 H  -5.17320170   15.32496407  -10.58849786
 H  -2.62217149   16.04847113  -9.09575445
 H  -3.85864268   17.11251497  -9.75223989
 H  -4.79057499   15.22185431  -7.71575620
 H  -3.34978685   18.67830961  -6.41378371
 H  -3.30433117   18.34663184  -8.07575188
 H  -3.99125177   16.93946595  -4.93158709
 H  -4.70362473   15.53339885  -5.57352532
