21
conf-320
 N  -0.67639653   9.92750084  -5.37109193
 C  -0.38793779   11.35949712  -5.37955892
 C  -1.59851631   12.12104198  -4.83087165
 O  -2.57358306   11.55592519  -4.37272006
 C  -0.01977511   11.76893299  -6.80258478
 C   1.23052107   11.08102445  -7.26521122
 C   2.48916156   11.56458136  -6.91518951
 C   1.14809717   9.90601075  -8.00983704
 C   3.64272135   10.89624316  -7.31857005
 C   2.29732425   9.22569162  -8.40928412
 C   3.54903538   9.72417577  -8.06485111
 H  -1.06232291   9.67417103  -4.47015048
 H   0.47310911   11.61254528  -4.73846015
 H   0.11226302   12.85100823  -6.85300785
 H  -0.85651620   11.51102276  -7.45283194
 H   2.56313726   12.47284768  -6.32583503
 H   0.16720471   9.51797742  -8.26110609
 H   4.61325175   11.29203506  -7.04209743
 H   2.20411636   8.31353673  -8.98612689
 H   4.44726954   9.20234906  -8.37523407
 H   0.18588834   9.41488420  -5.48812550
 N  -1.52380027   13.47924178  -4.92446746
 C  -2.62050031   14.31090108  -4.44467624
 C  -3.90735479   14.07652875  -5.26080274
 O  -5.00916481   14.22213589  -4.75807448
 C  -2.26292700   15.79616831  -4.48789357
 C  -1.40502558   16.31839380  -3.33284152
 C  -0.01188356   15.70545103  -3.26140564
 C  -1.30050056   17.83891845  -3.44354514
 H  -0.62974350   13.91561830  -5.07269750
 H  -2.87560607   14.02173953  -3.41897759
 H  -1.77324162   16.01553982  -5.43785727
 H  -3.20498981   16.35655016  -4.48291907
 H  -1.93523991   16.07762002  -2.40306461
 H   0.51991261   15.84942795  -4.20825905
 H   0.57224301   16.19676144  -2.47901853
 H  -0.03348091   14.63866914  -3.03056477
 H  -0.75433816   18.26131259  -2.59742604
 H  -0.76902986   18.11072618  -4.35881040
 H  -2.28741064   18.30485349  -3.47424036
 N  -3.73137472   13.76175177  -6.56898288
 C  -4.79926606   13.08658575  -7.28621608
 C  -4.17005829   11.98665642  -8.13961424
 O  -3.07229522   12.10865869  -8.66027289
 C  -5.63178027   14.05317061  -8.11448598
 C  -6.85664810   13.35222498  -8.68661375
 N  -7.35200303   13.87010900  -9.83741593
 O  -7.36716626   12.39117414  -8.12810693
 H  -2.79836508   13.57599668  -6.89454521
 H  -5.47998155   12.63405109  -6.55906667
 H  -5.97683414   14.83817461  -7.44063541
 H  -5.03699254   14.52081527  -8.90009837
 H  -8.17830254   13.44469903  -10.21864090
 H  -6.96419677   14.69126596  -10.26375283
 N  -4.90245945   10.85374983  -8.26413540
 C  -4.31138089   9.66875472  -8.87389135
 C  -2.94914261   9.41717802  -8.23068902
 O  -1.95227057   9.15070894  -8.85659020
 C  -4.29245572   9.75338029  -10.41546382
 C  -4.90230385   8.52703526  -11.10632821
 C  -3.93512081   7.37911152  -11.38419402
 N  -3.18009177   6.91282611  -10.21376125
 C  -3.75591930   6.39487966  -9.12701513
 N  -5.03982192   5.96013579  -9.17986285
 N  -3.07449296   6.29915643  -7.96223291
 O  -3.00771921   9.42723901  -6.91029062
 H  -2.09914049   9.50451661  -6.51377118
 H  -5.89533713   10.88009360  -8.05644914
 H  -4.94086713   8.82792567  -8.56624545
 H  -3.28258217   9.94664594  -10.77528278
 H  -4.87720637   10.63372595  -10.69357564
 H  -5.72560246   8.14194031  -10.50356045
 H  -5.33127207   8.82888728  -12.06638224
 H  -4.46336037   6.53197366  -11.83474348
 H  -3.18073600   7.69313159  -12.10872619
 H  -2.35481359   7.47618375  -10.01452378
 H  -5.31815364   5.27673826  -8.49108766
 H  -5.43019583   5.81430326  -10.09829500
 H  -3.61200666   6.35460011  -7.10791133
 H  -2.19570047   6.80414081  -7.91608691
