21
conf-879
 N  -2.42435526   13.55620452  -7.25049092
 C  -3.27919357   14.12189903  -6.19300640
 C  -3.70215480   12.97399952  -5.27366592
 O  -2.89555420   12.45630526  -4.51679874
 C  -4.45106818   14.94572591  -6.74331804
 C  -3.99938430   16.19362113  -7.45017914
 C  -3.78368933   17.37873901  -6.74548220
 C  -3.75347770   16.17868744  -8.82169433
 C  -3.31865629   18.51844589  -7.39720319
 C  -3.27884813   17.31227297  -9.47703820
 C  -3.05971540   18.48700597  -8.76458258
 H  -2.17758040   14.29626649  -7.89859259
 H  -2.64394559   14.77314344  -5.58628296
 H  -5.10295565   15.22538439  -5.91374540
 H  -5.02890149   14.32116313  -7.42941437
 H  -3.98184904   17.41460000  -5.67939410
 H  -3.91991455   15.26415196  -9.38256517
 H  -3.15659265   19.42943184  -6.83165141
 H  -3.08302228   17.27385009  -10.54207003
 H  -2.69311774   19.37210849  -9.27200782
 H  -2.93014210   12.84677151  -7.77154971
 N  -4.97731857   12.51672885  -5.38410079
 C  -5.43941422   11.44882369  -4.50898424
 C  -4.70969617   10.12711589  -4.78997944
 O  -4.44386642   9.34192296  -3.89419417
 C  -6.95476039   11.30378685  -4.64211437
 C  -7.59769851   10.19814183  -3.80265473
 C  -7.27074041   10.35673013  -2.31963053
 C  -9.10571684   10.19133529  -4.03500626
 H  -5.66390718   13.07164659  -5.86104840
 H  -5.18355861   11.71190309  -3.47845353
 H  -7.40046258   12.26087113  -4.35765248
 H  -7.19450960   11.13449555  -5.69403278
 H  -7.19432030   9.23846671  -4.13752308
 H  -6.19803388   10.28282433  -2.14220451
 H  -7.62001909   11.32625462  -1.95100403
 H  -7.76279605   9.57576819  -1.73506031
 H  -9.54497010   11.13372250  -3.69984347
 H  -9.33923416   10.06231888  -5.09398280
 H  -9.58251798   9.37745250  -3.48435854
 N  -4.43860373   9.87905768  -6.09846062
 C  -3.46473458   8.86848350  -6.46061954
 C  -2.45175164   9.50933118  -7.41477438
 O  -2.78245774   10.38088566  -8.20795901
 C  -4.13131696   7.64939114  -7.08998273
 C  -3.13572667   6.51694547  -7.30234286
 N  -3.43131273   5.64577987  -8.29850004
 O  -2.13894256   6.39710996  -6.60309006
 H  -4.54083129   10.63054268  -6.75904476
 H  -2.96929695   8.53457327  -5.54760479
 H  -4.89597359   7.29664743  -6.39508370
 H  -4.62872403   7.91498394  -8.02476270
 H  -2.81093627   4.86695086  -8.43116759
 H  -4.27893322   5.71294011  -8.83126906
 N  -1.18194652   9.04343897  -7.30821368
 C  -0.09606897   9.59903284  -8.10750386
 C  -0.24140340   11.11903280  -8.12435620
 O  -0.21127475   11.81544857  -9.12129380
 C  -0.00890535   8.93288670  -9.49494191
 C   1.42031679   8.64272779  -9.99854200
 C   1.93117875   9.56022281  -11.10688953
 N   2.02837091   10.97925801  -10.74069879
 C   2.83483615   11.43444542  -9.77550372
 N   3.86743904   10.66564299  -9.36512041
 N   2.62223295   12.66200136  -9.25962949
 O  -0.39690107   11.59822722  -6.89003018
 H  -0.90648326   12.45568149  -6.93803718
 H  -1.04458535   8.14665715  -6.85299994
 H   0.82136111   9.38248512  -7.54256506
 H  -0.58393729   9.51442429  -10.21422309
 H  -0.52837909   7.97346254  -9.40578478
 H   2.12717962   8.67960654  -9.16916096
 H   1.45547812   7.61973963  -10.38655409
 H   2.90565501   9.21430060  -11.47020950
 H   1.25404532   9.52638086  -11.96371290
 H   1.15601708   11.49044799  -10.83864697
 H   4.63236323   11.11936494  -8.88700959
 H   4.13831731   9.90893604  -9.97564369
 H   3.08273821   12.87565473  -8.38506192
 H   1.65542966   12.98646662  -9.29893169
