21
conf-731
 N  -2.49382870   11.66589035  -10.26865370
 C  -3.37095276   10.55403879  -9.96379131
 C  -4.53257329   11.01907586  -9.06989589
 O  -4.72570975   12.19926212  -8.83984995
 C  -2.59576061   9.36020614  -9.37542837
 C  -1.33576112   9.09708823  -10.15014658
 C  -1.37571758   8.61912677  -11.45700694
 C  -0.10309964   9.40398565  -9.58659375
 C  -0.19962173   8.45486376  -12.18769179
 C   1.07264292   9.27712873  -10.31952161
 C   1.02845026   8.79433635  -11.62418004
 H  -1.75730605   11.74229308  -9.57710076
 H  -3.82860020   10.19441758  -10.89655373
 H  -3.23979516   8.47422041  -9.38635701
 H  -2.32388608   9.57159103  -8.33891816
 H  -2.33471411   8.38174011  -11.90383392
 H  -0.05969050   9.76468950  -8.56759561
 H  -0.24895295   8.07569929  -13.20224681
 H   2.01335556   9.56080742  -9.86098724
 H   1.94170197   8.68200139  -12.19765966
 H  -3.04506818   12.51243755  -10.24123325
 N  -5.31771628   10.04127501  -8.54648074
 C  -6.47801685   10.37786099  -7.73658131
 C  -6.09621683   11.14066431  -6.45701590
 O  -6.83688687   11.99135068  -5.99029512
 C  -7.29281575   9.13721471  -7.38371327
 C  -7.87046381   8.36007240  -8.56820897
 C  -8.67562867   7.17452477  -8.04584614
 C  -8.73340575   9.24202706  -9.46271892
 H  -5.22545922   9.10251285  -8.89179135
 H  -7.10624910   11.08444237  -8.29217780
 H  -6.68074825   8.46318693  -6.78141677
 H  -8.11997925   9.46456969  -6.74704249
 H  -7.03922728   7.96614241  -9.16619739
 H  -9.52675440   7.52733505  -7.45827666
 H  -9.06168165   6.56444182  -8.86596806
 H  -8.06788113   6.53040732  -7.40577181
 H  -9.54880160   9.68418165  -8.88136463
 H  -8.16178206   10.05359623  -9.92054957
 H  -9.18002922   8.65461860  -10.26918518
 N  -4.92943756   10.76272325  -5.87096928
 C  -4.22179612   11.69082049  -5.01078340
 C  -2.77376146   11.73558586  -5.51381752
 O  -2.30201929   10.78449416  -6.11974323
 C  -4.31800256   11.26718425  -3.54917546
 C  -3.73901792   12.32262471  -2.61839486
 N  -3.27926962   11.87041492  -1.42550280
 O  -3.70785073   13.50607751  -2.92507898
 H  -4.31725426   10.14217346  -6.37575496
 H  -4.68593220   12.67712487  -5.09152262
 H  -5.37972854   11.16308848  -3.31599695
 H  -3.84685344   10.29632785  -3.38601214
 H  -2.91105081   12.54970241  -0.78340796
 H  -3.33746598   10.90420207  -1.16176437
 N  -2.08360962   12.86717593  -5.25205101
 C  -0.72045327   13.09955838  -5.70857189
 C  -0.74027542   13.06869091  -7.23549023
 O  -0.19206590   12.26388545  -7.99162241
 C   0.29136090   12.14381953  -5.06462875
 C   1.64203530   12.78721041  -4.77019664
 C   2.51111199   13.13187461  -5.97463487
 N   1.94997702   14.13232705  -6.88791143
 C   1.68648590   15.39472185  -6.57514287
 N   2.10878863   15.88604190  -5.38250866
 N   0.97758167   16.16857810  -7.43017585
 O  -1.51161470   14.08406070  -7.70938722
 H  -1.62266376   13.82500483  -8.63220939
 H  -2.50271467   13.54519961  -4.62182533
 H  -0.48385007   14.12667050  -5.43807332
 H   0.38711134   11.25113636  -5.67814000
 H  -0.13754559   11.80692326  -4.12073579
 H   1.48478977   13.69356589  -4.18427458
 H   2.22790490   12.10857098  -4.14056576
 H   3.49913736   13.46302425  -5.62929027
 H   2.67764952   12.24177164  -6.58563655
 H   1.74176512   13.82416325  -7.83002917
 H   2.14834525   16.88868603  -5.28332714
 H   2.88663416   15.40046653  -4.95975245
 H   0.60033299   17.03182722  -7.06875119
 H   0.36606904   15.68830408  -8.08120320
