21
conf-156
 N  -2.87389092   9.28876385  -7.22212405
 C  -2.25072842   8.61424416  -6.08618858
 C  -3.05907952   8.98601211  -4.83675672
 O  -3.75590840   8.17031868  -4.25439190
 C  -0.76083301   8.94606876  -5.92537059
 C   0.02417098   8.77129364  -7.19569714
 C   0.55779409   7.53518581  -7.55968283
 C   0.19524701   9.84951306  -8.06123278
 C   1.23568098   7.38015590  -8.76715023
 C   0.86296835   9.69738805  -9.27324957
 C   1.38803047   8.46029230  -9.63056768
 H  -2.45221140   8.92178782  -8.06549280
 H  -2.37335542   7.53631278  -6.21814291
 H  -0.35512035   8.31392163  -5.13293312
 H  -0.65771166   9.97931877  -5.58394334
 H   0.44540247   6.68701199  -6.89302130
 H  -0.22338999   10.81342284  -7.79401979
 H   1.64235557   6.40959372  -9.02772804
 H   0.96947046   10.54922444  -9.93596206
 H   1.91197609   8.33965645  -10.57154439
 H  -2.64150856   10.27484715  -7.19592539
 N  -2.93828394   10.29080792  -4.44616222
 C  -3.93778714   10.88542181  -3.56033772
 C  -4.48458543   12.12631462  -4.26215626
 O  -5.66062788   12.25196132  -4.54323342
 C  -3.38569677   11.21082049  -2.17804704
 C  -2.91275421   10.00044372  -1.37110430
 C  -2.17273323   10.47509055  -0.12371887
 C  -4.07734992   9.08888976  -0.99014949
 H  -2.54243404   10.91661537  -5.12322403
 H  -4.76191436   10.17613188  -3.47595228
 H  -2.55837052   11.91303524  -2.27762031
 H  -4.16916545   11.72459486  -1.61293653
 H  -2.21273123   9.43656988  -1.98682632
 H  -2.83789984   11.06288394   0.51458688
 H  -1.80273205   9.62852968   0.45947893
 H  -1.31727499   11.09853963  -0.39205790
 H  -4.78982373   9.63282843  -0.36308251
 H  -4.60639856   8.72042055  -1.86985757
 H  -3.71776905   8.22527909  -0.42493264
 N  -3.53573360   13.07768352  -4.56502123
 C  -3.77637073   13.94204012  -5.70928051
 C  -3.31791381   13.22088045  -6.98416797
 O  -2.43643707   12.36025804  -6.95302632
 C  -3.08522283   15.28944157  -5.53265399
 C  -3.56524444   16.31098053  -6.55299648
 N  -2.71526658   17.33708612  -6.80552483
 O  -4.65618937   16.21632282  -7.09718939
 H  -2.57781097   12.79222774  -4.45353117
 H  -4.84955792   14.10548570  -5.76482903
 H  -3.35474398   15.66910767  -4.54557253
 H  -1.99732446   15.19051100  -5.55690068
 H  -3.01985495   18.04196933  -7.45341662
 H  -1.83868103   17.43520040  -6.32705553
 N  -3.93873678   13.58441480  -8.12709503
 C  -3.55075335   13.02835762  -9.42060827
 C  -3.65483717   11.50997319  -9.37289477
 O  -2.82587931   10.75677796  -9.84516524
 C  -2.16457697   13.54099340  -9.87076605
 C  -2.01802937   13.84237744  -11.37528164
 C  -1.21307394   12.83603550  -12.19567614
 N  -1.82311424   11.50657320  -12.33714833
 C  -2.99023143   11.29927666  -12.95774211
 N  -3.48296862   12.24048732  -13.79267297
 N  -3.64675847   10.13437161  -12.77021786
 O  -4.74790970   11.07791472  -8.73846861
 H  -4.57786449   10.14741007  -8.50124746
 H  -4.53683947   14.40411601  -8.10411281
 H  -4.31890490   13.36692045  -10.12711294
 H  -1.39373308   12.85484867  -9.52082115
 H  -1.98796292   14.47549289  -9.33190294
 H  -2.99888619   13.95976541  -11.83706792
 H  -1.51499327   14.80899680  -11.48149671
 H  -1.00142319   13.24024898  -13.19219398
 H  -0.24163133   12.66188005  -11.72276178
 H  -1.68820046   10.92061944  -11.52089647
 H  -4.14078162   11.94084323  -14.49761828
 H  -2.83983636   12.95787692  -14.09334542
 H  -4.62352093   10.11440394  -13.02868752
 H  -3.43674954   9.62793883  -11.91352603
