21
conf-549
 N  -3.99663638   9.56292737  -8.09426769
 C  -3.09395864   8.61569611  -8.74991893
 C  -2.03432524   8.19504630  -7.72076077
 O  -2.36438092   7.75041102  -6.64151362
 C  -2.50344508   9.18668482  -10.05414653
 C  -3.54075974   9.80044779  -10.95504212
 C  -4.23327230   9.04019444  -11.89624341
 C  -3.85559178   11.15159384  -10.81566608
 C  -5.23081365   9.61863618  -12.67811189
 C  -4.85719342   11.73088879  -11.58753266
 C  -5.54718787   10.96487649  -12.52323691
 H  -4.74910012   9.75094772  -8.74380864
 H  -3.67506455   7.71359020  -8.97648196
 H  -1.96280036   8.39720336  -10.57714406
 H  -1.78925249   9.97650081  -9.80029565
 H  -3.99269491   7.99003914  -12.01902648
 H  -3.34247654   11.74270959  -10.06104204
 H  -5.75794439   9.01183494  -13.40542968
 H  -5.09971684   12.77868087  -11.45382729
 H  -6.32547967   11.41697843  -13.12780862
 H  -3.49165937   10.43441388  -7.94420687
 N  -0.72371978   8.38948061  -8.04177803
 C   0.29021056   8.32589395  -7.00098959
 C   0.15741425   9.47812000  -5.98408952
 O   0.46897819   9.33338689  -4.81279212
 C   1.67769329   8.29930799  -7.64419807
 C   2.86896889   8.23872811  -6.68618925
 C   2.76935646   7.04629535  -5.73799777
 C   4.16567833   8.19416609  -7.48938998
 H  -0.45693259   8.64586625  -8.97414659
 H   0.12703294   7.40814878  -6.43123814
 H   1.71239988   7.42233707  -8.29610900
 H   1.78004516   9.18161975  -8.28118242
 H   2.86854848   9.15131768  -6.08404565
 H   2.72572308   6.10944998  -6.30211537
 H   3.64335718   7.00575917  -5.08347211
 H   1.88207055   7.11640160  -5.10897545
 H   4.24417211   9.05512716  -8.15665930
 H   5.03569988   8.20072550  -6.82899873
 H   4.20431664   7.28632283  -8.09582581
 N  -0.28213429   10.65688310  -6.49350504
 C  -0.66588656   11.75602883  -5.63605756
 C  -2.00872708   12.29391964  -6.15157373
 O  -2.33702874   12.15833867  -7.32553253
 C   0.41237953   12.83774868  -5.62491385
 C   0.14505220   13.91365500  -4.58312338
 N   0.71203153   15.12177090  -4.82274396
 O  -0.52571274   13.69258659  -3.58458639
 H  -0.68587343   10.68177945  -7.41310275
 H  -0.76503875   11.38105897  -4.61616210
 H   1.35605826   12.35391963  -5.36372463
 H   0.53349504   13.27819158  -6.61650699
 H   0.58402608   15.83956715  -4.13152662
 H   1.30245515   15.28447348  -5.61771833
 N  -2.78251053   12.89784057  -5.21837397
 C  -4.08668217   13.49183494  -5.50788395
 C  -4.87447588   12.53309893  -6.39137221
 O  -5.37803410   12.79024371  -7.47065627
 C  -3.95526699   14.93488910  -6.02897558
 C  -5.04417818   15.91463754  -5.54543640
 C  -6.10171937   16.29696624  -6.57809407
 N  -6.91593838   15.18125004  -7.07441853
 C  -7.71680781   14.44938000  -6.29256724
 N  -8.09517335   14.94824771  -5.09477837
 N  -8.15700346   13.25114526  -6.72744291
 O  -4.94870823   11.32405484  -5.80886415
 H  -5.18821210   10.66959146  -6.48970111
 H  -2.34544839   13.13097155  -4.33238431
 H  -4.60598539   13.50950013  -4.53992974
 H  -3.86796460   14.92933794  -7.11408341
 H  -2.99579764   15.30402587  -5.65289237
 H  -5.54966562   15.51334169  -4.66692265
 H  -4.56183818   16.84350804  -5.22394422
 H  -6.76224935   17.07429025  -6.17603740
 H  -5.62495116   16.72658304  -7.46247812
 H  -6.50683182   14.68365349  -7.85910937
 H  -8.91606707   14.55525008  -4.65700948
 H  -7.97933334   15.94207455  -4.96021875
 H  -8.53828732   12.62768271  -6.02699354
 H  -7.53520357   12.78079062  -7.38624133
