21
conf-684
 N  -1.36431662   12.31978586  -8.31728138
 C  -1.39367519   11.65160445  -9.62628018
 C  -2.73557314   10.92745110  -9.74748094
 O  -3.77276510   11.56255971  -9.86757233
 C  -0.17663737   10.75079709  -9.87144093
 C   1.10520307   11.52782796  -9.98560413
 C   1.51105798   12.06521601  -11.20793773
 C   1.89487245   11.75662020  -8.86094242
 C   2.67543178   12.82401342  -11.29880206
 C   3.05550708   12.52228879  -8.94355334
 C   3.44876925   13.05897228  -10.16531612
 H  -0.47248380   12.78672091  -8.21323763
 H  -1.40590932   12.43716476  -10.38768902
 H  -0.33577446   10.18953069  -10.79604440
 H  -0.10237371   10.02673895  -9.05574222
 H   0.91510498   11.88887946  -12.09732175
 H   1.59125474   11.34194980  -7.90482891
 H   2.97362246   13.23359878  -12.25760390
 H   3.64844956   12.69561095  -8.05338620
 H   4.35268451   13.65353913  -10.23419279
 H  -1.43383571   11.64499432  -7.56467907
 N  -2.72282825   9.57267489  -9.65158098
 C  -3.95629619   8.81687354  -9.75898988
 C  -4.90070950   9.06112336  -8.56861366
 O  -6.11194139   8.97998747  -8.70232955
 C  -3.69835147   7.32071233  -9.91607553
 C  -2.87458200   6.91762458  -11.14024324
 C  -2.72467013   5.40028406  -11.17170758
 C  -3.49307414   7.42585925  -12.43642255
 H  -1.84767074   9.08665540  -9.72804402
 H  -4.51809592   9.18674985  -10.62569525
 H  -3.20914955   6.94182910  -9.01593436
 H  -4.67430190   6.83107628  -9.97381649
 H  -1.87107342   7.35491250  -11.04119736
 H  -3.70335734   4.92725777  -11.28507859
 H  -2.09702955   5.08026042  -12.00695061
 H  -2.27360499   5.02497182  -10.24992692
 H  -4.50935344   7.03472681  -12.54832894
 H  -3.54234139   8.51763629  -12.47051637
 H  -2.91092660   7.09264364  -13.29932620
 N  -4.30234738   9.31861824  -7.37904533
 C  -5.04614016   9.98048579  -6.32434781
 C  -4.13185687   11.05627853  -5.72804952
 O  -2.91544949   10.91614169  -5.70891909
 C  -5.52631067   8.98484058  -5.27719940
 C  -6.45714185   9.64715377  -4.27170689
 N  -6.50543905   9.07473237  -3.04360562
 O  -7.13033914   10.62506922  -4.56480595
 H  -3.30612140   9.46023870  -7.35695757
 H  -5.93819161   10.43844294  -6.76071371
 H  -6.09232127   8.21631435  -5.80555795
 H  -4.68564396   8.49926819  -4.77928862
 H  -7.13495626   9.47420158  -2.37031569
 H  -5.98799808   8.24449133  -2.82122553
 N  -4.75590504   12.15660738  -5.24569430
 C  -4.00206001   13.32986397  -4.81362168
 C  -2.90338472   13.61305149  -5.85606876
 O  -1.72290977   13.73312744  -5.59481544
 C  -3.52685043   13.19835093  -3.35682989
 C  -3.48096558   14.53588125  -2.58291955
 C  -2.10189355   14.92145990  -2.05874763
 N  -1.13454540   15.26887348  -3.11249597
 C  -1.24518292   16.35225109  -3.88999647
 N  -2.10333238   17.34299020  -3.55763723
 N  -0.47710968   16.46611431  -4.99597236
 O  -3.41673338   13.67817171  -7.07698414
 H  -2.70880157   13.40248523  -7.73434915
 H  -5.75649174   12.11785805  -5.07821402
 H  -4.70642197   14.16667827  -4.88627050
 H  -2.57015431   12.68206590  -3.34926527
 H  -4.22649546   12.53248263  -2.84638783
 H  -3.84489735   15.35334613  -3.20657374
 H  -4.16724741   14.47778268  -1.73166238
 H  -2.17329108   15.75261150  -1.34844154
 H  -1.65680554   14.08797636  -1.50964992
 H  -0.72578477   14.46529637  -3.57154882
 H  -1.90219503   18.26741716  -3.91200179
 H  -2.47083258   17.32529158  -2.61782731
 H  -0.80865632   17.10607362  -5.70518467
 H  -0.09394439   15.60160339  -5.37076669
