21
conf-746
 N  -2.03902650   10.91774392  -9.35840882
 C  -2.49263984   9.53480862  -9.56529008
 C  -4.01864639   9.53496097  -9.66606794
 O  -4.56079581   10.03420431  -10.64562245
 C  -1.91468344   8.63372816  -8.47789559
 C  -0.44281540   8.37355345  -8.66600583
 C  -0.00031121   7.21835560  -9.30628751
 C   0.51062100   9.29046348  -8.21787455
 C   1.35821058   6.98852959  -9.50878697
 C   1.87233888   9.06657537  -8.41843980
 C   2.30012004   7.91455162  -9.06692822
 H  -2.43268713   11.26933723  -8.48878135
 H  -2.12773037   9.21862406  -10.54654836
 H  -2.43506845   7.67535925  -8.47158617
 H  -2.08124859   9.11556108  -7.50858481
 H  -0.72158230   6.48487432  -9.64923447
 H   0.19788755   10.19912703  -7.71762835
 H   1.67840129   6.08272260  -10.01238784
 H   2.58980890   9.80001334  -8.06432709
 H   3.35790430   7.73597942  -9.22570015
 H  -2.42575704   11.48030789  -10.10965706
 N  -4.73233626   9.06034582  -8.60557128
 C  -6.06165436   9.59169363  -8.36497393
 C  -6.06265826   10.85054755  -7.47982131
 O  -7.06562170   11.54001634  -7.38894535
 C  -7.01114766   8.55568123  -7.77988141
 C  -7.14567693   7.28545879  -8.62514555
 C  -8.28992087   6.43447943  -8.08390797
 C  -7.35291618   7.62299731  -10.09791970
 H  -4.24292864   8.66380312  -7.82489337
 H  -6.45104216   9.93610181  -9.32762604
 H  -6.70423106   8.29596303  -6.76229668
 H  -7.99047101   9.03574707  -7.70085555
 H  -6.21982758   6.70749006  -8.53558400
 H  -9.23956920   6.96414073  -8.19470623
 H  -8.36765753   5.48654418  -8.62177012
 H  -8.15034522   6.20862146  -7.02374337
 H  -8.19923444   8.30997319  -10.20844255
 H  -6.47543870   8.09852105  -10.54103030
 H  -7.57154069   6.72152939  -10.67547591
 N  -4.91121268   11.11380740  -6.82996394
 C  -4.66761187   12.33010340  -6.08528153
 C  -3.13753940   12.41346496  -5.95616340
 O  -2.44101940   11.41038865  -6.07244373
 C  -5.36787149   12.31441415  -4.72974383
 C  -5.29962097   13.67014611  -4.04218218
 N  -5.49026223   13.65822623  -2.70005092
 O  -5.10278934   14.70498285  -4.66357750
 H  -4.10313742   10.53539638  -6.96072561
 H  -5.06592824   13.18285744  -6.64415508
 H  -6.41824430   12.07566618  -4.90969649
 H  -4.96445048   11.53051775  -4.08678637
 H  -5.46501406   14.53881776  -2.21719774
 H  -5.67199245   12.80994922  -2.19562171
 N  -2.62742582   13.64405519  -5.73301834
 C  -1.18877903   13.90910688  -5.71724005
 C  -0.54357162   13.10617406  -6.84309718
 O   0.29492265   12.23951819  -6.70308930
 C  -0.55060959   13.63878033  -4.35070770
 C   0.58024780   14.60348359  -4.00403445
 C   1.85439565   14.48951841  -4.83439880
 N   1.70169290   14.79664461  -6.25948265
 C   1.34772730   15.97083956  -6.76391786
 N   1.25507162   17.04838635  -5.94649416
 N   1.05491623   16.06638761  -8.08460270
 O  -1.00861473   13.45561263  -8.05893368
 H  -0.66073246   12.74491206  -8.62607798
 H  -3.26999183   14.40627857  -5.53891810
 H  -1.07684016   14.96954438  -5.95626083
 H  -0.22408844   12.60050040  -4.29871834
 H  -1.32659467   13.75754290  -3.59077314
 H   0.20812631   15.62613246  -4.07340648
 H   0.86805319   14.44572239  -2.95944143
 H   2.62641729   15.13773677  -4.40062597
 H   2.24534306   13.47245035  -4.79211243
 H   1.90042452   14.05315340  -6.91372448
 H   1.25475495   17.95924142  -6.37927206
 H   1.79668509   16.99854965  -5.09554990
 H   0.55409961   16.89041899  -8.38275471
 H   0.73212124   15.20830770  -8.52282238
