21
conf-211
 N  -0.23791815   10.28268813  -7.57777946
 C   0.63663606   10.55496810  -6.43994017
 C   0.19624148   9.59000392  -5.33338746
 O   0.50405950   8.40884119  -5.39340277
 C   0.65440560   12.03309693  -6.02173052
 C   1.16288775   12.93919312  -7.11154146
 C   2.50914568   13.29622175  -7.18718363
 C   0.29071974   13.41590087  -8.08801038
 C   2.97401122   14.09822013  -8.22870288
 C   0.74974458   14.21293588  -9.13380314
 C   2.09541327   14.55525537  -9.20722617
 H   0.18069128   10.63296963  -8.42465465
 H   1.64623052   10.24050477  -6.71870846
 H   1.28108336   12.14196846  -5.13552538
 H  -0.36489970   12.34489839  -5.75868704
 H   3.20340909   12.95214940  -6.42842010
 H  -0.75887173   13.14750043  -8.04200326
 H   4.02475596   14.36300537  -8.27043849
 H   0.05452930   14.56329970  -9.88626901
 H   2.45585029   15.17679272  -10.01973795
 H  -1.12146373   10.75857525  -7.46861623
 N  -0.59624498   10.07878552  -4.33389473
 C  -1.56576113   9.18954909  -3.72189547
 C  -2.93224469   9.19416135  -4.43390288
 O  -3.77649852   8.36170383  -4.14482584
 C  -1.76226586   9.46302022  -2.23686206
 C  -0.46766855   9.41930230  -1.41958723
 C  -0.80431472   9.46169501   0.06734458
 C   0.36258877   8.18751231  -1.76563110
 H  -0.79736831   11.06187573  -4.30514143
 H  -1.19271294   8.16972096  -3.85393858
 H  -2.26097368   10.42634715  -2.09238981
 H  -2.44631394   8.69587846  -1.86346713
 H   0.12552519   10.30788060  -1.65933588
 H  -1.36202141   8.56646775   0.35386389
 H   0.10122490   9.50464658   0.67730808
 H  -1.41566245   10.33394790   0.31194872
 H  -0.24808314   7.28402712  -1.65859250
 H   0.73944560   8.21767012  -2.78891521
 H   1.22068731   8.09705907  -1.09512089
 N  -3.11077949   10.15364854  -5.36277264
 C  -4.28251720   10.26103018  -6.20189025
 C  -3.85887891   11.20551543  -7.33036168
 O  -2.86587847   11.91923657  -7.22332065
 C  -5.49333812   10.77479391  -5.42420231
 C  -6.78777524   10.64801943  -6.21252653
 N  -7.83710126   11.35806787  -5.72989487
 O  -6.88310465   9.94011570  -7.20572785
 H  -2.37800457   10.79437521  -5.59777361
 H  -4.54968479   9.27627193  -6.59879401
 H  -5.58150207   10.16371226  -4.52207039
 H  -5.34097720   11.80437169  -5.09456289
 H  -8.71853179   11.27855581  -6.20587663
 H  -7.76231988   11.91554260  -4.89849637
 N  -4.58146294   11.16407286  -8.47000736
 C  -4.33519247   12.10853542  -9.56274424
 C  -2.96612504   11.91081169  -10.22790670
 O  -2.49308330   12.74575822  -10.96953140
 C  -4.57595187   13.57216542  -9.13065108
 C  -5.79108686   14.21359486  -9.81603947
 C  -5.44224319   15.01914098  -11.06763182
 N  -4.66372052   14.26767592  -12.06254224
 C  -5.13976234   13.20142161  -12.71715644
 N  -6.47760439   12.98277808  -12.76487112
 N  -4.27981148   12.35505364  -13.31772496
 O  -2.37408779   10.73282507  -10.03666683
 H  -2.90417234   10.19487384  -9.42233375
 H  -5.45635735   10.64478059  -8.46765561
 H  -5.04739812   11.83397368  -10.34572761
 H  -3.67761292   14.16883541  -9.30880829
 H  -4.71557713   13.58168775  -8.05028649
 H  -6.51872405   13.45017292  -10.09689946
 H  -6.29446275   14.88722182  -9.11713051
 H  -6.34408032   15.42663280  -11.53712707
 H  -4.82153260   15.87717189  -10.79932521
 H  -3.67170593   14.19782378  -11.83624903
 H  -6.82524683   12.40247967  -13.51476511
 H  -7.07013404   13.76877991  -12.54181370
 H  -4.61337374   11.44824531  -13.60657267
 H  -3.31564961   12.37678059  -12.99543623
