21
conf-746
 N  -97.30715605  -13.54891699   4.45035704
 C  -97.09275620  -14.94358760   4.04048317
 C  -95.69837177  -15.25214615   3.50834298
 O  -95.36213330  -16.41415068   3.33149176
 C  -98.13910197  -15.36983012   3.00455766
 C  -99.50523986  -15.30606434   3.60600332
 C  -100.35394242  -14.23573756   3.58259700
 C  -100.12388494  -16.30361602   4.43945476
 C  -101.34563454  -15.77544636   4.88594207
 C  -99.73280121  -17.58532033   4.84692675
 N  -101.46856022  -14.51582041   4.34419298
 C  -102.20357726  -16.48372739   5.73042372
 C  -100.57824036  -18.29747937   5.68112618
 C  -101.79887669  -17.75167049   6.11877375
 H  -98.26267598  -13.46360421   4.80906270
 H  -97.21565409  -15.59692481   4.91339043
 H  -98.06910991  -14.69985282   2.14526120
 H  -97.90748401  -16.37903878   2.66449855
 H  -100.25353993  -13.28933908   3.07636970
 H  -102.23475621  -13.89009399   4.50156505
 H  -98.79068066  -18.01741188   4.51905773
 H  -103.14308448  -16.05714100   6.06392624
 H  -100.29725055  -19.29219546   6.00595785
 H  -102.43604062  -18.33511078   6.77265428
 H  -96.62181080  -13.27526437   5.18052736
 H  -97.20825517  -12.91024017   3.65651400
 N  -94.91796838  -14.18769381   3.22044696
 C  -93.50061806  -14.27515686   2.91098713
 C  -92.72796396  -14.89282479   4.08853660
 O  -92.20137723  -15.99432740   4.01656473
 C  -93.18793926  -15.00998745   1.58477001
 C  -91.73262434  -14.73181134   1.18887523
 C  -94.14425809  -14.58556945   0.47291771
 C  -91.21075763  -15.61340007   0.05999838
 H  -95.23854019  -13.26744249   3.47219045
 H  -93.18652184  -13.23980679   2.79201006
 H  -93.30894424  -16.07851268   1.78264300
 H  -91.65739546  -13.67605586   0.90784414
 H  -91.09583527  -14.86447126   2.07209889
 H  -94.10729074  -13.50179887   0.32584474
 H  -93.87264493  -15.05868303  -0.47163000
 H  -95.17214150  -14.87288355   0.70008233
 H  -91.76924998  -15.46930317  -0.86599067
 H  -91.27808445  -16.67253052   0.32624926
 H  -90.16283169  -15.38856342  -0.14584742
 N  -92.65872599  -14.21306253   5.27380169
 C  -93.00586164  -12.85742930   5.67070830
 C  -94.54551057  -12.59849434   5.45725939
 O  -94.87075847  -11.85472632   4.53777186
 C  -92.12885130  -11.78615388   5.03536626
 C  -92.37532368  -10.34575454   5.50301601
 C  -92.54248328  -10.21173865   7.00959663
 N  -93.89137637  -10.62825161   7.41575154
 C  -94.18989724  -11.16554518   8.59659940
 N  -93.30022461  -11.01877133   9.61409283
 N  -95.34868663  -11.83330177   8.73283741
 O  -95.27301817  -13.16868452   6.28047942
 H  -92.17125383  -14.75975244   5.96356306
 H  -92.84788172  -12.85846215   6.75106213
 H  -91.09577686  -12.06535410   5.25266720
 H  -92.23324905  -11.82401027   3.94637483
 H  -93.26028225  -9.93173761   5.01394251
 H  -91.52555220  -9.73799059   5.17652925
 H  -91.79345461  -10.82423635   7.51967940
 H  -92.38573071  -9.17671116   7.32183412
 H  -94.61656924  -10.61114063   6.71580271
 H  -93.59886893  -11.27279898   10.54306976
 H  -92.71183676  -10.19792545   9.56897063
 H  -95.60438115  -12.37414693   7.90032045
 H  -95.50771917  -12.31013298   9.60867291
