21
conf-222
 N  -95.33836434  -14.04367207   2.66547104
 C  -96.02697098  -12.76778266   2.95923043
 C  -95.43353236  -12.10697904   4.20211127
 O  -94.75633260  -11.09446998   4.10900950
 C  -97.52804913  -13.00490549   3.10394676
 C  -98.11266638  -13.54008025   1.83493673
 C  -98.23811903  -14.86258304   1.50829024
 C  -98.53507024  -12.79217117   0.67922748
 C  -98.89408585  -13.72064905  -0.31142680
 C  -98.63355823  -11.42160101   0.40410768
 N  -98.71132325  -14.97665734   0.21973788
 C  -99.34253080  -13.33506858  -1.57678952
 C  -99.07889945  -11.02796475  -0.84570909
 C  -99.42814125  -11.97442215  -1.82653455
 H  -94.34195855  -13.89284896   2.47947190
 H  -95.84571640  -12.06740343   2.13979560
 H  -97.69556624  -13.71904179   3.91040058
 H  -98.01553100  -12.07140127   3.38072024
 H  -98.03070167  -15.74160044   2.09671188
 H  -98.86942478  -15.83854511  -0.26607410
 H  -98.37216177  -10.67570675   1.14842543
 H  -99.61118491  -14.07176608  -2.32587251
 H  -99.16154206  -9.97235842  -1.07561174
 H  -99.77198624  -11.63232442  -2.79534034
 H  -95.43935884  -14.69801275   3.46992367
 H  -95.77851565  -14.47569186   1.84695036
 N  -95.74524336  -12.71962382   5.37724187
 C  -95.05765685  -12.48103158   6.63585574
 C  -93.61001270  -12.98567104   6.53751856
 O  -92.66803398  -12.20872363   6.45208249
 C  -95.12482123  -11.02929231   7.14992704
 C  -94.66628746  -11.00361261   8.61334843
 C  -96.53350704  -10.45925237   7.00435530
 C  -94.44721301  -9.60472601   9.17950912
 H  -96.12746576  -13.65285456   5.29215685
 H  -95.59586989  -13.09258030   7.35436611
 H  -94.42665927  -10.44031598   6.55169870
 H  -95.41194458  -11.53729336   9.21183769
 H  -93.73270170  -11.57536629   8.69543655
 H  -96.58585093  -9.45018989   7.41578282
 H  -96.82814856  -10.40352529   5.95710064
 H  -97.25860871  -11.07912040   7.54003465
 H  -95.36652549  -9.01697631   9.18720640
 H  -93.70556791  -9.05424485   8.59295968
 H  -94.08193834  -9.66284229   10.20627904
 N  -93.34013515  -14.32587976   6.47576753
 C  -94.06017734  -15.57725177   6.69427675
 C  -94.79879805  -16.06103968   5.41061503
 O  -95.79787976  -15.39472476   5.03937543
 C  -94.98632118  -15.60641097   7.90424219
 C  -95.54089153  -16.98874567   8.27417163
 C  -94.48409315  -18.06115140   8.49879977
 N  -94.06515619  -18.65491115   7.21648444
 C  -92.91295510  -19.28538106   7.02765075
 N  -92.19267162  -19.71124019   8.09349245
 N  -92.48013252  -19.49567035   5.76391903
 O  -94.35427305  -17.09177048   4.87814916
 H  -92.34746212  -14.44403430   6.33866850
 H  -93.25728888  -16.29564584   6.85537560
 H  -94.42332636  -15.21073729   8.75383522
 H  -95.82665308  -14.93633200   7.73131896
 H  -96.23836416  -17.34039889   7.50905222
 H  -96.12675847  -16.87017257   9.19062447
 H  -93.62614034  -17.63104726   9.02826743
 H  -94.88406871  -18.85898984   9.12777795
 H  -94.47412533  -18.27846283   6.36222869
 H  -91.49734956  -20.42269134   7.92848672
 H  -92.70245292  -19.82462125   8.95803646
 H  -92.87303147  -18.86665777   5.06369504
 H  -91.50313265  -19.71011786   5.63888336
