21
conf-879
 N  -94.19664367  -14.53346338   2.94266428
 C  -93.60158994  -13.20040468   3.10382023
 C  -93.69304448  -12.65061238   4.53238106
 O  -92.74396663  -12.05408732   5.01828981
 C  -94.20758290  -12.19567422   2.10536283
 C  -95.69219050  -12.33114057   1.94584412
 C  -96.68454908  -11.76673430   2.70232130
 C  -96.35432377  -13.15860949   0.96744210
 C  -97.73588677  -13.06681624   1.20298642
 C  -95.88522995  -13.96920654  -0.06831343
 N  -97.91208699  -12.20883368   2.26543360
 C  -98.67193504  -13.77555064   0.44858352
 C  -96.80302385  -14.67524918  -0.82786007
 C  -98.18196182  -14.58192908  -0.56757168
 H  -93.76244707  -15.23333155   3.56679748
 H  -92.52338522  -13.26373498   2.92362505
 H  -93.93699875  -11.18634433   2.43052430
 H  -93.73475596  -12.36382433   1.13383639
 H  -96.59764621  -11.08969133   3.53771072
 H  -98.79270581  -11.95354942   2.66879837
 H  -94.82532094  -14.05282440  -0.27709309
 H  -99.73416533  -13.69636854   0.65085238
 H  -96.45764501  -15.31112814  -1.63316586
 H  -98.87499421  -15.14919337  -1.17731525
 H  -95.19081233  -14.56247998   3.21102923
 H  -94.11489536  -14.83091432   1.96428760
 N  -94.89082468  -12.77988898   5.14762373
 C  -95.13559638  -12.42700735   6.53341015
 C  -94.30128758  -13.32156415   7.46299282
 O  -93.38757362  -12.87933704   8.14433833
 C  -94.94875007  -10.93111073   6.87281369
 C  -95.60027032  -10.65393505   8.23449217
 C  -95.54721442  -10.02763861   5.79900399
 C  -95.24193365  -9.30046844   8.83787022
 H  -95.60271926  -13.34010165   4.70835848
 H  -96.18980234  -12.65481918   6.68146122
 H  -93.87453401  -10.75004517   6.94554822
 H  -96.68492948  -10.73573052   8.10881499
 H  -95.30761197  -11.44790991   8.93258416
 H  -94.99936707  -10.10736393   4.85794281
 H  -96.59826739  -10.27823450   5.62321963
 H  -95.50532617  -8.98281728   6.10644563
 H  -94.16089839  -9.20829708   8.97963641
 H  -95.71639320  -9.17966891   9.81328180
 H  -95.56358453  -8.47093288   8.20670582
 N  -94.56574722  -14.66199355   7.51924215
 C  -95.56145610  -15.53416558   6.90813088
 C  -95.33201478  -15.63545363   5.35614852
 O  -96.19034619  -15.13190217   4.64223852
 C  -96.99715911  -15.22155255   7.31964033
 C  -98.07805753  -16.19497913   6.83438621
 C  -97.70393207  -17.65868888   7.00577167
 N  -96.77357923  -18.07783958   5.94989971
 C  -95.83533299  -19.00965136   6.10363820
 N  -95.95702909  -19.87839320   7.14199343
 N  -94.80644085  -19.04877564   5.24002409
 O  -94.33170411  -16.26594248   5.02251411
 H  -93.91938525  -15.11509338   8.14414145
 H  -95.29382004  -16.52065047   7.29282014
 H  -96.99663922  -15.20933565   8.41244348
 H  -97.27120434  -14.21309943   7.00187481
 H  -98.31813818  -16.01217569   5.78455482
 H  -98.99110133  -15.98652976   7.40161034
 H  -97.24664347  -17.80725004   7.98861573
 H  -98.59399667  -18.29038348   6.96036389
 H  -96.76080754  -17.53518670   5.10070503
 H  -95.34755056  -20.68135001   7.16027270
 H  -96.90086133  -20.05675933   7.45749501
 H  -94.48986385  -18.12243840   4.93621201
 H  -94.06060342  -19.70081400   5.43448684
