21
conf-879
 N   10.03642355   29.00856471   13.34881678
 C   11.45618965   29.22896575   13.60317709
 C   11.67249769   30.06456278   14.85993350
 O   12.59414082   29.78448179   15.60847518
 C   12.24062689   29.83570648   12.43611656
 C   12.64120983   28.83790472   11.35206242
 C   11.55403118   28.36984602   10.35601360
 O   11.99866840   27.81533540   9.34563285
 O   10.36189241   28.50521483   10.64555978
 H   9.89319417   28.72470212   12.37715379
 H   11.93817973   28.27337377   13.84644908
 H   11.72901121   30.69995664   12.01592709
 H   13.17535605   30.21657420   12.86821804
 H   13.01975194   27.92175973   11.81931230
 H   13.46115129   29.23957965   10.75244159
 H   9.64191688   28.30285993   13.97337170
 H   9.52804284   29.88034895   13.50972282
 N   10.81655079   31.10207229   15.16491199
 C   10.22630478   32.11253272   14.28944768
 C   11.03111684   33.39541400   14.50781407
 O   11.47372287   33.63910325   15.62169686
 C   8.78809791   32.39374507   14.76061993
 C   7.88283904   31.20237387   14.70237267
 C   7.97232985   30.05260181   15.44278412
 C   6.71281604   31.06792871   13.88025424
 C   6.14588167   29.81846623   14.15522863
 C   6.10228965   31.91604162   12.94808281
 N   6.93239141   29.21735514   15.10876055
 C   4.99965158   29.35894089   13.50533835
 C   4.95942753   31.47439157   12.30238355
 C   4.41887581   30.20608450   12.57116300
 H   11.16850326   31.55965744   16.00357416
 H   10.25038533   31.81489114   13.24313801
 H   8.35568306   33.20900710   14.17715026
 H   8.86816578   32.74855327   15.78976304
 H   8.72430594   29.75993852   16.15643130
 H   6.71830363   28.34893386   15.55954332
 H   6.52661506   32.88801572   12.72206659
 H   4.57881664   28.38310238   13.71945434
 H   4.48236923   32.10730644   11.56377107
 H   3.52754547   29.88784103   12.04434262
 N   11.17888620   34.30863942   13.51516492
 C   10.85745796   34.29527613   12.09554441
 C   11.83641118   33.42859460   11.31867054
 O   13.03189167   33.47840697   11.55204524
 C   11.02862099   35.77297857   11.62725758
 C   11.37930496   36.01249468   10.16997597
 O   9.88501314   36.51322556   12.00746286
 H   9.15163901   36.18213026   11.47732765
 H   11.79945798   35.04911967   13.81385987
 H   9.84439897   33.95705465   11.95100578
 H   11.85114344   36.16586831   12.22896055
 H   10.55471009   35.75019575   9.50597796
 H   12.26305721   35.44286775   9.88050834
 H   11.58438486   37.07777576   10.03996150
 N   11.38805074   32.68391215   10.25701487
 C   10.08869783   32.26152302   9.73261937
 C   9.32138521   33.34840190   9.02211847
 O   9.21780032   33.42884888   7.82591791
 C   9.22857394   31.50174805   10.73157432
 C   8.05762270   30.69293650   10.15075361
 C   8.12637004   30.34355183   8.66755001
 N   9.28162794   29.49409866   8.35792275
 C   9.96318165   29.50424307   7.21696444
 N   9.68078421   30.46032960   6.28715094
 N   10.86247548   28.54191597   6.97359036
 O   8.72731115   34.23076414   9.86161266
 H   8.26086027   34.85742422   9.29825591
 H   12.17557125   32.23488622   9.82613847
 H   10.37133663   31.58804404   8.93102203
 H   8.83171035   32.19960361   11.47357988
 H   9.89867547   30.84518280   11.27450848
 H   7.94106994   29.76923297   10.72754952
 H   7.13607641   31.26693268   10.29865929
 H   7.20986220   29.81906389   8.38228252
 H   8.14448308   31.25865550   8.08395635
 H   9.51704807   28.77803866   9.04534455
 H   10.30499690   30.53760065   5.49732666
 H   9.32579532   31.34692136   6.61759013
 H   11.32260031   28.13609837   7.80254895
 H   11.45237844   28.65059129   6.16066464
