21
conf-876
 N   9.21919385   28.41568306   12.29167523
 C   10.59158804   28.26008167   12.79218706
 C   10.65389526   28.48010152   14.30230957
 O   11.00680427   27.56284269   15.02240023
 C   11.58765884   29.12433525   12.01876318
 C   12.13290700   28.47726099   10.74700998
 C   11.20765841   28.46666070   9.52378115
 O   11.78913956   28.40885813   8.43236834
 O   9.96714994   28.47879018   9.69521514
 H   9.25427377   28.41396929   11.25987277
 H   10.88784642   27.21047466   12.69195372
 H   11.12053005   30.06468747   11.74938876
 H   12.43476369   29.36324386   12.66701345
 H   12.40206511   27.43237229   10.93557000
 H   13.04812103   28.97988824   10.42009842
 H   8.61575083   27.65828807   12.62283891
 H   8.81431394   29.30492091   12.60969723
 N   10.22133017   29.66565658   14.85638481
 C   10.32265990   31.01084421   14.32096734
 C   11.60262907   31.64340809   14.87796286
 O   12.13715509   31.20628876   15.88156286
 C   9.13246925   31.85611801   14.79738339
 C   7.81426577   31.39593704   14.25890878
 C   7.24086326   30.15877713   14.37114016
 C   6.87526618   32.21801294   13.54357905
 C   5.75823422   31.42459930   13.25318872
 C   6.91403529   33.54912450   13.11459753
 N   6.00475551   30.17595665   13.76763178
 C   4.65732245   31.91606846   12.54610853
 C   5.82304577   34.04812177   12.42285501
 C   4.71099177   33.24151709   12.13715409
 H   10.47011587   29.65263827   15.84182887
 H   10.35240572   31.00144110   13.23989528
 H   9.27988156   32.90359316   14.52944637
 H   9.12893353   31.81460335   15.88785551
 H   7.60932965   29.26117561   14.82861863
 H   5.36683094   29.40373956   13.74064370
 H   7.79102189   34.16415315   13.28906095
 H   3.80000125   31.28966788   12.32826208
 H   5.83832344   35.07244115   12.06635131
 H   3.88283958   33.66362486   11.58242922
 N   12.06925343   32.78055297   14.29057893
 C   11.74875247   33.39152226   13.01881106
 C   12.32363131   32.55541323   11.86671784
 O   13.36336082   31.93456960   12.02784737
 C   12.40859785   34.80108472   13.05664375
 C   13.90061462   34.77640103   12.80897779
 O   11.84959042   35.69110454   12.10600211
 H   11.00595688   36.00125329   12.44739866
 H   12.97327581   33.02715825   14.66485511
 H   10.67807130   33.48625986   12.89306295
 H   12.21808359   35.16441386   14.07405120
 H   14.09550942   34.52686956   11.76454233
 H   14.39744338   34.03564933   13.43926228
 H   14.31413815   35.76515133   13.01269102
 N   11.72495760   32.59236808   10.63108253
 C   10.34926926   32.82734097   10.18105823
 C   9.98907893   34.29068453   10.14101538
 O   10.29591785   35.04781823   9.25576367
 C   9.31174853   31.94839203   10.86432663
 C   7.93703582   31.91799464   10.20358553
 C   7.95627672   31.74443122   8.69397656
 N   8.78557257   30.58653832   8.32992667
 C   8.93342028   30.14585689   7.08083197
 N   8.29719210   30.79745371   6.06559860
 N   9.64185804   29.04652262   6.83210540
 O   9.23044512   34.65943716   11.20301251
 H   9.02042441   35.58766687   11.05247364
 H   12.27092888   32.05303218   9.98358941
 H   10.39894631   32.53273217   9.12864153
 H   9.21010085   32.22507835   11.91753329
 H   9.70977970   30.93123632   10.84877377
 H   7.37140991   31.08570299   10.63846928
 H   7.38826956   32.83320647   10.45235246
 H   6.92796293   31.60364039   8.33960251
 H   8.34194352   32.64155389   8.20630410
 H   9.01546961   29.89465562   9.03669138
 H   8.68335504   30.69577764   5.13956670
 H   7.91154474   31.70486690   6.26748216
 H   10.40624068   28.75291419   7.46411035
 H   9.73893361   28.75909480   5.87203269
