21
conf-472
 N  -6.17827637  -0.99821180  -10.86670281
 C  -5.17529204  -2.01378638  -10.60552330
 C  -5.79570710  -3.26493235  -9.98785196
 O  -5.58588713  -4.36672229  -10.47271002
 C  -4.01494216  -1.46418717  -9.73872943
 C  -3.59003251  -0.19453064  -10.31641840
 N  -3.61999648   0.90854562  -9.62925108
 O  -3.22451381  -0.23160050  -11.58677811
 H  -5.79570662  -0.36258116  -11.55235242
 H  -2.94355664   0.63315388  -11.95035949
 H  -4.76770958  -2.33964882  -11.55907048
 H  -4.33766315  -1.26597639  -8.71455731
 H  -3.20531591  -2.19484308  -9.74156631
 H  -3.47480095   1.84625185  -9.98433792
 H  -3.96388732   0.84198684  -8.66621130
 H  -6.32038909  -0.45983802  -10.02832416
 N  -6.57257082  -3.07762713  -8.88591813
 C  -7.23720793  -4.18916636  -8.23588817
 C  -8.27946502  -3.69808677  -7.22187524
 O  -8.49540086  -4.34574913  -6.20348176
 C  -6.24567741  -5.16808182  -7.57840691
 C  -5.45149616  -4.61442699  -6.42397886
 C  -4.49905731  -3.61488172  -6.60256359
 C  -5.65871649  -5.10423503  -5.13805528
 C  -3.79578559  -3.09453229  -5.51830364
 C  -4.94836806  -4.60558629  -4.05398219
 C  -4.02142666  -3.58571368  -4.23932646
 H  -6.79949484  -2.14713306  -8.57032912
 H  -7.77492911  -4.75137866  -9.00493183
 H  -6.82876839  -6.02813327  -7.24731924
 H  -5.57740881  -5.50625830  -8.36874641
 H  -4.30245464  -3.21521865  -7.58455886
 H  -6.42254525  -5.86528020  -4.98635316
 H  -3.10562038  -2.27465356  -5.68139494
 H  -5.15895151  -4.97981833  -3.05564474
 H  -3.50366035  -3.15098011  -3.39003397
 N  -8.95255729  -2.54361444  -7.48437021
 C  -9.33943694  -2.00809585  -8.76805926
 C  -8.97233518  -0.53239193  -8.92839773
 O  -9.48526753   0.15121104  -9.80000943
 C  -10.83930708  -2.17989223  -9.03965552
 C  -11.69252807  -1.22118119  -8.22568413
 N  -12.93537424  -1.00156708  -8.73056291
 O  -11.29983261  -0.71415887  -7.18302038
 H  -9.56338664  -2.31614861  -6.70647304
 H  -8.79501613  -2.54676822  -9.54636387
 H  -11.13923131  -3.20020523  -8.79705732
 H  -11.02747790  -2.02212421  -10.10475144
 H  -13.52306897  -0.33313024  -8.26378524
 H  -13.20252247  -1.34802774  -9.63337278
 N  -7.99197455  -0.06555222  -8.10527589
 C  -7.67454924   1.34406432  -8.13951012
 C  -6.19772763   1.54429810  -7.83594477
 O  -5.47049965   0.65428231  -7.48406318
 C  -8.58279477   2.20486678  -7.25704659
 C  -8.39397408   2.15428777  -5.74093943
 C  -8.83973317   0.87603881  -5.04239674
 N  -7.83201023  -0.18480886  -5.12376825
 C  -8.21996117  -1.44337107  -4.67718978
 N  -9.45598211  -1.75995468  -4.62265570
 N  -7.15827970  -2.26768408  -4.36062615
 O  -5.71261144   2.78112345  -8.02470480
 H  -6.38321504   3.36770825  -8.39359129
 H  -7.84134047  -0.52695694  -7.22079525
 H  -7.83173324   1.66630785  -9.17028718
 H  -8.44958134   3.24216175  -7.58530191
 H  -9.61121566   1.94288258  -7.51397480
 H  -7.35338661   2.37248715  -5.47873315
 H  -8.99131213   2.97123650  -5.32104549
 H  -9.06514205   1.09373915  -3.99182176
 H  -9.75724039   0.48057890  -5.47979197
 H  -6.90704001   0.08704977  -4.83641491
 H  -9.56210495  -2.73282459  -4.34570835
 H  -7.40547062  -3.24259171  -4.29414566
 H  -6.30225803  -2.14301435  -4.87177107
