21
conf-883
 N  -7.83267754  -3.80334891  -9.27358234
 C  -9.05936353  -3.58471440  -8.50446673
 C  -8.84311991  -2.63625615  -7.33404187
 O  -9.81131877  -2.17016888  -6.73972799
 C  -9.68129592  -4.88127863  -7.91766925
 C  -10.27884070  -5.79386464  -8.89006415
 N  -10.26584799  -7.08666341  -8.69993235
 O  -10.90318964  -5.26356026  -9.90860336
 H  -8.08990481  -4.00456185  -10.23099514
 H  -11.34001284  -5.92123384  -10.50378582
 H  -9.81137990  -3.12479829  -9.13870226
 H  -8.93621474  -5.46168242  -7.37881168
 H  -10.44396868  -4.57836338  -7.19424239
 H  -10.62596097  -7.74908814  -9.38046156
 H  -9.78275077  -7.47504642  -7.88370610
 H  -7.37761140  -4.64213713  -8.92478440
 N  -7.56455757  -2.40315021  -6.96761844
 C  -7.27922388  -1.85811286  -5.65560882
 C  -6.23315700  -0.74042297  -5.74000183
 O  -5.19096853  -0.79260581  -5.09146236
 C  -6.85819654  -2.94554688  -4.65277124
 C  -7.83981551  -4.08311570  -4.59770011
 C  -9.12827551  -3.88425040  -4.10068495
 C  -7.50306328  -5.33653388  -5.10588855
 C  -10.08861549  -4.89265462  -4.17852586
 C  -8.45664417  -6.35226479  -5.16439695
 C  -9.75937617  -6.12223731  -4.74028531
 H  -6.83338578  -2.73415654  -7.56846459
 H  -8.22290458  -1.42887983  -5.30662699
 H  -5.86933937  -3.31247929  -4.92376694
 H  -6.75794847  -2.46528107  -3.67814189
 H  -9.38466734  -2.91913357  -3.67558146
 H  -6.50118183  -5.51166427  -5.48788641
 H  -11.09588951  -4.69925398  -3.83063007
 H  -8.19197471  -7.30690146  -5.61325927
 H  -10.51380005  -6.89591707  -4.85455829
 N  -6.51059665   0.29420907  -6.56680845
 C  -7.77268761   0.55898197  -7.20213203
 C  -7.72852827   0.48353892  -8.73566106
 O  -8.67409648   0.88208459  -9.39737892
 C  -8.38115011   1.90238190  -6.78761040
 C  -7.63308079   3.09445134  -7.36055089
 N  -8.36622422   4.23438808  -7.44642374
 O  -6.45928944   3.03248155  -7.69054582
 H  -5.77525848   0.99325221  -6.59400413
 H  -8.47221407  -0.21306430  -6.89204564
 H  -8.37170070   1.98140204  -5.69873245
 H  -9.42303919   1.93140496  -7.11716839
 H  -7.93345469   5.04163967  -7.85973133
 H  -9.34678860   4.24770442  -7.23553211
 N  -6.63171070  -0.08839010  -9.28546769
 C  -6.45733171  -0.05459269  -10.71671173
 C  -5.61280104  -1.18787359  -11.24690064
 O  -5.35479015  -1.33133995  -12.41608558
 C  -5.90904056   1.28669190  -11.23403739
 C  -4.41484433   1.56338675  -11.06295127
 C  -3.88372659   1.69114815  -9.63907979
 N  -3.71044992   0.38912233  -8.99965380
 C  -3.47004234   0.34668617  -7.63981171
 N  -3.70746663   1.36214896  -6.90040662
 N  -3.02470430  -0.89662655  -7.20117130
 O  -5.15835940  -2.03096398  -10.29983124
 H  -4.64535254  -2.69822988  -10.77535028
 H  -5.80828727  -0.20290897  -8.72853171
 H  -7.45006997  -0.17750479  -11.15563148
 H  -6.13545798   1.31767473  -12.30530865
 H  -6.50700318   2.07268026  -10.76732756
 H  -3.83456183   0.80289757  -11.59564084
 H  -4.20884490   2.51285418  -11.56985070
 H  -2.92923313   2.23082776  -9.65851109
 H  -4.55373197   2.27596095  -9.00983455
 H  -3.17846704  -0.27321694  -9.53861420
 H  -3.51517631   1.16083538  -5.92263923
 H  -3.23404994  -1.05346471  -6.22260748
 H  -3.33934908  -1.67170989  -7.76578944
