21
conf-123
 N  -7.48006352   1.76323677  -8.32499639
 C  -8.38544233   1.22099100  -7.33521337
 C  -7.59342740   0.33947318  -6.36342450
 O  -6.92125831   0.88090466  -5.49181043
 C  -9.62483751   0.53324955  -7.96027411
 C  -10.09788217   1.38197175  -9.02876854
 N  -10.07412434   1.05161250  -10.29258074
 O  -10.48257990   2.59062284  -8.65127838
 H  -7.91765396   2.54364483  -8.79285607
 H  -10.78458187   3.16942140  -9.38065853
 H  -8.72420427   2.06860438  -6.73824183
 H  -9.36022577  -0.41988286  -8.38595525
 H  -10.36260725   0.40343965  -7.16914048
 H  -10.27405634   1.69263195  -11.04808002
 H  -9.77514240   0.11759263  -10.57098949
 H  -7.24730149   1.06665226  -9.01277690
 N  -7.64237188  -1.01600178  -6.49817065
 C  -7.13228141  -1.83403124  -5.42123075
 C  -6.34556714  -3.04989873  -5.94590532
 O  -6.75215581  -4.19684931  -5.77217727
 C  -8.25287105  -2.29142966  -4.47904301
 C  -9.04405294  -1.14130329  -3.93271472
 C  -8.52918129  -0.33906195  -2.91650087
 C  -10.29227352  -0.82317510  -4.46913432
 C  -9.24204136   0.76263476  -2.44751799
 C  -11.00151424   0.28358374  -4.01310812
 C  -10.48045784   1.08079716  -2.99884844
 H  -8.06933273  -1.47293936  -7.29543577
 H  -6.44288457  -1.20287780  -4.85889772
 H  -8.90959930  -2.96957942  -5.02481475
 H  -7.79802811  -2.86449661  -3.67045740
 H  -7.54730662  -0.57307957  -2.51388462
 H  -10.70286433  -1.44551606  -5.25922186
 H  -8.82196663   1.37450627  -1.65791359
 H  -11.96713312   0.51627317  -4.44651989
 H  -11.03435644   1.93969264  -2.63958347
 N  -5.17471488  -2.79802220  -6.58633500
 C  -4.74963074  -1.54695627  -7.15283383
 C  -5.31906448  -1.26383452  -8.55094628
 O  -5.13883867  -0.16035950  -9.06103620
 C  -3.21752007  -1.45451360  -7.22359089
 C  -2.62683083  -2.52832597  -8.12452741
 N  -1.73696957  -2.08806199  -9.04509372
 O  -2.91896110  -3.70694578  -7.98925326
 H  -4.66227639  -3.62596645  -6.86045132
 H  -5.12488509  -0.74069178  -6.52111362
 H  -2.81109726  -1.61749737  -6.22458554
 H  -2.92460966  -0.45641911  -7.55339739
 H  -1.33361219  -2.76099641  -9.67280371
 H  -1.56480981  -1.11009818  -9.17428001
 N  -5.97636397  -2.25518613  -9.17645617
 C  -6.69165804  -1.97826814  -10.39330057
 C  -8.19273432  -2.15422166  -10.16486804
 O  -8.67096630  -2.36658483  -9.08734833
 C  -6.09806351  -2.72139030  -11.59193071
 C  -5.84009812  -4.21499094  -11.44135420
 C  -7.04667802  -5.14861479  -11.43601148
 N  -7.98051540  -4.98714626  -10.33153236
 C  -7.59444952  -5.20223732  -9.03515029
 N  -6.35739228  -5.27081803  -8.71080412
 N  -8.65655112  -5.27765045  -8.14536452
 O  -8.97800486  -1.93327910  -11.23646538
 H  -8.45745838  -1.78338440  -12.03239893
 H  -6.04976695  -3.19261095  -8.78510001
 H  -6.56188141  -0.90850946  -10.56474867
 H  -6.70831825  -2.52949669  -12.48034290
 H  -5.13660727  -2.23151548  -11.78244575
 H  -5.22966525  -4.52296982  -12.29863122
 H  -5.23096654  -4.39572953  -10.55565758
 H  -7.62799300  -5.00191208  -12.35358750
 H  -6.66892155  -6.18062803  -11.45750519
 H  -8.93438954  -5.21959544  -10.53646895
 H  -6.23984299  -5.39452256  -7.70556242
 H  -8.35136498  -5.22069680  -7.18200936
 H  -9.37679924  -4.59671304  -8.34310139
