21
conf-234
 N  -4.16541686   0.46968136  -8.40244544
 C  -4.66746658  -0.64366967  -9.19371763
 C  -6.16779755  -0.50310406  -9.47340082
 O  -6.55695541   0.49451427  -10.08657155
 C  -4.24112871  -1.94925071  -8.51343476
 C  -2.84227218  -1.78839463  -8.17481248
 N  -2.37771538  -1.83203627  -6.97243317
 O  -2.07225308  -1.56767772  -9.21281744
 H  -4.61071091   0.44115695  -7.49492089
 H  -1.13482007  -1.37765128  -8.98377951
 H  -4.18579762  -0.58485621  -10.17397884
 H  -4.77956429  -2.09561404  -7.59120102
 H  -4.37633772  -2.77759831  -9.20381067
 H  -1.42411515  -1.60040293  -6.71903219
 H  -3.02349643  -1.93018625  -6.18963796
 H  -4.45257286   1.33684708  -8.83727012
 N  -7.00532179  -1.49720912  -9.07542578
 C  -8.34406666  -1.57375459  -9.62990906
 C  -9.40096265  -1.78307058  -8.53857905
 O  -9.92693790  -2.86979535  -8.37599321
 C  -8.44450178  -2.68779084  -10.68074442
 C  -7.44811833  -2.50459049  -11.78975050
 C  -7.66637701  -1.55703690  -12.78823158
 C  -6.25477930  -3.23174266  -11.80383279
 C  -6.72072338  -1.33840434  -13.78659474
 C  -5.30418599  -3.01535159  -12.80024094
 C  -5.53474194  -2.06800358  -13.79290409
 H  -6.72495186  -2.19028562  -8.40063382
 H  -8.52616510  -0.61763188  -10.12025743
 H  -8.28864850  -3.64128218  -10.17779530
 H  -9.46345714  -2.68984128  -11.06879300
 H  -8.58473650  -0.97501000  -12.76055610
 H  -6.06964643  -3.96703248  -11.02583986
 H  -6.91201549  -0.59675314  -14.55339733
 H  -4.38752246  -3.59334368  -12.80353530
 H  -4.79405949  -1.90132257  -14.56639374
 N  -9.75138113  -0.71238969  -7.78512540
 C  -8.89742619   0.43725314  -7.56815299
 C  -7.75131609   0.13878353  -6.59249311
 O  -6.61072005   0.53753860  -6.79486854
 C  -9.71217477   1.65656281  -7.13185344
 C  -10.41245454   1.48877683  -5.79235245
 N  -10.65728374   2.63192906  -5.11523660
 O  -10.74251344   0.38321321  -5.37343033
 H  -10.41576635  -0.92449099  -7.05257515
 H  -8.39570440   0.66578038  -8.50581007
 H  -10.48099764   1.82973663  -7.88797786
 H  -9.07237386   2.54208839  -7.10940281
 H  -11.12050272   2.56840596  -4.22535192
 H  -10.39003907   3.52953223  -5.47730028
 N  -8.04407920  -0.61637591  -5.50883979
 C  -6.95331393  -0.90660624  -4.61603057
 C  -5.97630660  -1.82441460  -5.34311589
 O  -6.31154935  -2.78041338  -5.99162488
 C  -7.40277254  -1.43540376  -3.25460736
 C  -8.55274096  -2.43904203  -3.17640253
 C  -8.31513384  -3.84782929  -3.72651912
 N  -8.86773731  -4.01584342  -5.07106784
 C  -9.04827831  -5.30740011  -5.54519947
 N  -9.08069061  -6.30149476  -4.74188902
 N  -9.18323975  -5.34883746  -6.92422036
 O  -4.68147658  -1.47775706  -5.21425499
 H  -4.61930208  -0.60521173  -4.79245648
 H  -9.00248761  -0.65448270  -5.19777964
 H  -6.42403353   0.03423365  -4.43850443
 H  -6.52420370  -1.85095862  -2.74923044
 H  -7.69979395  -0.55817390  -2.67074506
 H  -8.78559006  -2.53560593  -2.11022293
 H  -9.45890796  -2.02785748  -3.63509007
 H  -7.25430381  -4.09136708  -3.72560928
 H  -8.81020084  -4.57762588  -3.08449635
 H  -8.45477124  -3.39926510  -5.74981467
 H  -9.23867773  -7.16512184  -5.25323597
 H  -9.52727921  -6.22586479  -7.27769147
 H  -9.61006288  -4.54490237  -7.37092410
