21
conf-472
 N   13.13958579   16.89916505   10.62017764
 C   12.98750759   15.72718881   11.51196278
 C   14.35091269   15.45954043   12.13284790
 O   15.21501898   14.85670000   11.51384890
 C   12.47271804   14.50931986   10.72919781
 C   11.00388709   14.21966621   11.03194537
 C   10.16801588   15.47234871   10.96076119
 O   10.25827663   16.28289083   10.06980300
 O   9.32277648   15.62715361   11.99534836
 H   8.93303378   16.52101702   11.90302576
 H   13.46867656   17.72120286   11.14978787
 H   12.28041855   16.00815164   12.28741061
 H   13.08367408   13.63301755   10.94834452
 H   12.59624218   14.71715181   9.66390568
 H   10.60878990   13.49440021   10.31316376
 H   10.89181853   13.80168095   12.03113175
 H   13.82374816   16.68321034   9.89118800
 H   12.23573103   17.10107221   10.19201858
 N   14.60440250   15.98477724   13.36501205
 C   13.73954546   16.74999241   14.24187345
 C   13.29473700   18.07971703   13.61557426
 O   13.93529859   18.65069402   12.74086191
 C   14.51629688   16.97016602   15.54741741
 C   13.77309062   17.55615590   16.74591748
 C   12.59356676   16.68868091   17.16992169
 C   14.75422722   17.73031775   17.90270565
 H   15.56594487   15.87486238   13.64494719
 H   12.84608637   16.15458123   14.45881703
 H   15.37735301   17.59809502   15.30461043
 H   14.90956370   15.99130775   15.83855883
 H   13.39409402   18.54866772   16.48376396
 H   12.93484669   15.68739294   17.44554731
 H   12.08661722   17.12893772   18.03331186
 H   11.84629533   16.58906831   16.37692245
 H   14.26467384   18.17844005   18.76986417
 H   15.16052632   16.76265611   18.20421426
 H   15.58658417   18.37660909   17.61715271
 N   12.12814317   18.58517240   14.09928307
 C   11.75665550   19.97528307   13.91867953
 C   10.56227740   20.14663939   14.92289396
 O   9.73776947   21.05283812   14.70652553
 C   11.47118808   20.41456913   12.48953643
 C   10.45816013   19.60249413   11.67857269
 C   9.09058402   19.46797085   12.34197430
 N   9.08830397   18.29746102   13.24557129
 C   8.25895296   18.16226939   14.29783172
 N   7.56798118   19.21441424   14.74852418
 N   8.21015100   16.91183932   14.81912825
 O   10.59366531   19.36924534   15.89161758
 H   11.75064184   18.26023426   14.97255670
 H   12.55580029   20.62651035   14.30124199
 H   12.42378544   20.41355674   11.95983732
 H   11.14078651   21.45563436   12.54543076
 H   10.33849713   20.10618662   10.71413282
 H   10.85368053   18.60265684   11.45871942
 H   8.31598833   19.31550694   11.58678995
 H   8.82946038   20.37962765   12.86776894
 H   9.95367098   17.78505658   13.35096249
 H   8.13096248   20.07856996   14.74510657
 H   7.03815606   19.08017101   15.59802446
 H   7.51326720   16.71788575   15.52063192
 H   8.45058834   16.15247478   14.19332893
