21
conf-156
 N   11.41695470   17.14405732   9.37378496
 C   11.61793045   16.50881276   10.69069366
 C   12.97028889   15.79996598   10.66049686
 O   13.52750476   15.57151154   9.60068463
 C   10.50314394   15.52014619   11.02116620
 C   9.07636220   16.04784921   10.87444664
 C   8.92255384   17.36540674   11.53784526
 O   9.19925575   18.37346020   10.95704637
 O   8.51376698   17.33213916   12.81210226
 H   8.48139400   18.24616276   13.15650969
 H   10.61135492   17.76574580   9.39553094
 H   11.66075255   17.28451845   11.45363400
 H   10.64678904   15.15718165   12.04167554
 H   10.60996997   14.64592176   10.37334536
 H   8.83767312   16.15930580   9.81437823
 H   8.36866788   15.34804582   11.30840360
 H   12.23912744   17.68654335   9.11483750
 H   11.28962946   16.43031871   8.66133753
 N   13.51529918   15.38392191   11.84654824
 C   13.18061372   15.84410873   13.17598194
 C   13.63304029   17.29496673   13.39924853
 O   14.54148376   17.81993205   12.78356192
 C   13.86173114   14.93793318   14.20046173
 C   13.47912508   13.46018746   14.10907588
 C   14.32708788   12.65033114   15.08646151
 C   11.99801224   13.23205403   14.38390537
 H   14.48312074   15.11568062   11.72950188
 H   12.09573949   15.80581521   13.31316327
 H   13.64673551   15.29374384   15.21080562
 H   14.93894450   15.03515539   14.04661935
 H   13.70216300   13.11896359   13.09414171
 H   14.13081352   12.97234778   16.11262218
 H   14.09645982   11.58428375   15.01901189
 H   15.39471216   12.77559753   14.89112170
 H   11.35695819   13.76381305   13.67781954
 H   11.74954536   12.17003701   14.31682675
 H   11.74158555   13.57377257   15.39136304
 N   12.94502078   17.93968295   14.38372167
 C   13.33258219   19.24509725   14.84694627
 C   12.66458296   19.42485220   16.23904853
 O   12.96707133   20.42481344   16.87921841
 C   12.89408440   20.39933190   13.93917151
 C   11.44840030   20.86192014   14.14480927
 C   10.41779226   19.76515907   13.91738204
 N   9.02871448   20.14764732   14.25868257
 C   8.58852531   20.17217321   15.54648848
 N   9.24230832   19.59397118   16.54300271
 N   7.41627846   20.83740569   15.73939989
 O   11.86434173   18.51160858   16.54935158
 H   12.38175061   17.45006855   15.05126923
 H   14.41634061   19.28822458   14.98153689
 H   13.06017977   20.08792128   12.90615321
 H   13.56385464   21.24346644   14.13624598
 H   11.33005620   21.28997756   15.14279177
 H   11.25114494   21.67208811   13.43834883
 H   10.66561458   18.84771765   14.43875836
 H   10.39170261   19.50963605   12.85730631
 H   8.70571403   20.95360538   13.73676854
 H   10.17437871   19.20091705   16.46843824
 H   8.86112019   19.62979737   17.47557888
 H   6.94875542   20.67301920   16.62072043
 H   6.78883264   20.85532730   14.94480224
