21
conf-34
 N   14.37869845   17.54379347   13.16467342
 C   13.61492026   18.60501853   13.86317803
 C   13.74676490   19.85055920   12.99493024
 O   14.82748570   20.41328835   12.88930384
 C   14.18940171   18.84491280   15.26286064
 C   13.51261462   18.06211899   16.38564244
 C   13.69175024   16.56392811   16.36845768
 O   14.28417466   15.94326108   15.51791108
 O   13.08785106   15.90265789   17.38649009
 H   12.66164553   16.52478793   17.99223010
 H   14.48452187   16.73699403   13.78120719
 H   12.57284620   18.29465791   13.91026077
 H   14.11432596   19.90611566   15.51104326
 H   15.25445005   18.61922403   15.23077448
 H   13.88488087   18.41889367   17.35060257
 H   12.43499537   18.26090929   16.37276046
 H   13.91245144   17.26965398   12.29732325
 H   15.30866772   17.90732918   12.93982678
 N   12.65324451   20.27611648   12.29748734
 C   11.36032531   19.64414262   12.18111951
 C   11.42669849   18.27812828   11.46964882
 O   12.33770208   17.94995919   10.70101152
 C   10.41667495   20.56896290   11.41450174
 C   10.31226763   21.98979605   11.97303689
 C   9.24034771   22.75810856   11.20618438
 C   10.02373830   21.99212567   13.46969427
 H   12.89890842   20.92287652   11.56415185
 H   10.95802115   19.48316427   13.18920741
 H   9.41730115   20.12625555   11.39836700
 H   10.76588015   20.60304547   10.38039236
 H   11.27380841   22.49082714   11.80988300
 H   9.18826518   23.79907201   11.53424816
 H   9.43849396   22.75547332   10.13126523
 H   8.25980807   22.30348676   11.36996522
 H   9.82679499   23.00740402   13.82304551
 H   9.13970409   21.38384438   13.68771936
 H   10.86168604   21.59821849   14.04740049
 N   10.35280634   17.48957101   11.75407761
 C   10.07337845   16.21028526   11.15269376
 C   8.84306062   15.64107271   11.92098611
 O   8.34656331   14.60432393   11.49025592
 C   11.18438632   15.15528994   11.24827306
 C   11.29519538   14.51472780   12.63094349
 C   11.45259322   15.51994157   13.76444389
 N   11.47559194   14.88486266   15.08214916
 C   10.39730068   14.51777902   15.77451050
 N   9.16044136   14.72020618   15.30361412
 N   10.61937437   13.86448744   16.94498272
 O   8.50567607   16.30210434   12.93373046
 H   9.64563207   17.77382147   12.40313329
 H   9.79651705   16.33221810   10.10066500
 H   12.13231129   15.61566909   10.96384155
 H   10.95646863   14.37739638   10.51239495
 H   10.42111272   13.88883982   12.82594175
 H   12.16015969   13.84842637   12.64301682
 H   10.66849549   16.26537179   13.74768237
 H   12.39526735   16.03949294   13.64865227
 H   12.35404252   14.48408456   15.37704815
 H   8.97647771   15.30553580   14.49570541
 H   8.36528891   14.53805150   15.89572654
 H   9.82503395   13.75178579   17.55654867
 H   11.49158792   14.09957624   17.41033251
