34
36
N          1.26596      -12.58157       -9.10514
C          1.71530      -12.59323       -7.65858
C          1.63629      -14.10150       -7.30760
O          1.72026      -14.90881       -8.23259
C          0.86592      -11.63852       -6.82782
H          1.68317      -13.42804       -9.53604
H          2.76753      -12.28862       -7.66063
H          1.23891      -11.59532       -5.80034
H         -0.18066      -11.95584       -6.81863
H          0.92304      -10.61881       -7.22227
H          1.52858      -11.72908       -9.60577
H          0.23629      -12.73624       -9.14297
N          1.43221      -14.45603       -6.02638
C          1.14180      -15.86299       -5.69170
C         -0.12302      -16.34703       -6.43964
O         -0.21788      -17.49202       -6.83657
C          0.99590      -16.02837       -4.17885
H          1.41557      -13.76305       -5.29017
H          1.95302      -16.48757       -6.07268
H          0.77371      -17.07414       -3.95264
H          1.92308      -15.75642       -3.66380
H          0.17477      -15.41597       -3.78816
N         -1.11964      -15.40730       -6.56332
C         -2.19264      -15.56031       -7.52241
C         -2.01606      -14.54026       -8.64300
O         -1.25866      -13.57401       -8.59309
C         -3.58751      -15.41763       -6.88492
O         -2.81516      -14.78608       -9.67550
H         -2.70942      -14.08383      -10.34577
H         -0.90773      -14.45885       -6.28817
H         -2.09282      -16.55971       -7.95817
H         -3.69858      -16.17943       -6.10975
H         -3.70839      -14.43125       -6.42333
H         -4.37232      -15.55415       -7.63341
