21
conf-961
 N   32.63263303  -28.77114642   41.46838599
 C   31.46939317  -29.67434936   41.39949518
 C   31.80494161  -31.16629202   41.35957166
 O   30.96731507  -31.97108576   40.97472411
 C   30.50437057  -29.40611988   42.55622732
 C   30.05699918  -27.97178040   42.58578251
 C   30.44882696  -27.11505450   43.61215473
 C   29.27746593  -27.44703479   41.55800079
 C   30.07259602  -25.77581675   43.62118463
 C   28.87966763  -26.11388967   41.55558731
 C   29.28392706  -25.27476548   42.59122291
 O   28.93711766  -23.95405159   42.64878109
 H   33.14358333  -28.88244896   42.34828389
 H   30.92497030  -29.48169403   40.46816406
 H   29.65507322  -30.08151186   42.44310586
 H   31.00069561  -29.66039427   43.49501986
 H   31.06265475  -27.49527529   44.42003169
 H   28.97792059  -28.10035042   40.74777769
 H   30.37910066  -25.11152954   44.41834348
 H   28.26815868  -25.73304138   40.74468215
 H   28.39614002  -23.73751780   41.88540871
 H   33.27044511  -28.90379375   40.68885744
 H   32.29106193  -27.80782450   41.44536677
 N   33.03632883  -31.50667983   41.81027547
 C   33.57847328  -32.85258120   41.67934384
 C   35.12521681  -32.76002273   41.96595617
 O   35.96427389  -33.39114721   41.30368638
 C   32.89167390  -33.91150405   42.55967046
 C   32.77205443  -33.54112024   44.02930808
 C   33.60421439  -35.25750373   42.41087992
 H   33.71135057  -30.77097358   41.86222011
 H   33.44242509  -33.16496911   40.64117020
 H   31.88830760  -33.99278899   42.14566809
 H   32.20530655  -34.31447353   44.55459674
 H   33.75478433  -33.48471988   44.49957552
 H   32.24982818  -32.59152310   44.18121867
 H   34.55560722  -35.24320179   42.94341299
 H   33.80342656  -35.48667884   41.36200389
 H   32.99637244  -36.06022473   42.83506814
 N   35.38428990  -31.97391418   43.04635943
 C   36.67156663  -31.38046620   43.31657921
 C   36.67747571  -29.88898834   43.03439917
 O   37.61989618  -29.17174691   43.24151591
 C   37.13598034  -31.63340494   44.75140657
 C   37.21582261  -33.10399135   45.15978659
 C   38.42207992  -33.87209161   44.63283808
 N   38.42867591  -34.03151588   43.19521954
 C   39.31202706  -33.34042750   42.37820996
 N   40.43140466  -32.80176518   42.69280106
 N   38.85956775  -33.23126073   41.06837970
 O   35.52170821  -29.43602189   42.50769780
 H   35.65006853  -28.49075886   42.35927476
 H   34.58150640  -31.53370380   43.44021518
 H   37.38815794  -31.81009197   42.61425265
 H   36.45640933  -31.11355943   45.43510714
 H   38.11338946  -31.15806558   44.88250124
 H   36.29708712  -33.62891272   44.87032506
 H   37.25705986  -33.14590982   46.25349148
 H   38.43645299  -34.86570636   45.09062050
 H   39.34197958  -33.37279200   44.94509638
 H   37.49554698  -34.13211285   42.81333265
 H   40.65610882  -32.94320703   43.67045074
 H   39.60211138  -32.94840224   40.44857820
 H   38.28842467  -33.98380023   40.71572672
