21
conf-102
 N   10.64815699   30.35819728   9.41447039
 C   10.56113156   31.62581828   8.68896967
 C   11.84167947   32.46247821   8.78365357
 O   12.56512756   32.53796570   7.80066180
 C   9.28644050   32.38397374   9.03752215
 C   8.02774172   31.75073128   8.42742543
 C   7.38127572   30.60743922   9.18165523
 O   6.20397523   30.63156533   9.45454182
 O   8.11993415   29.54175921   9.47050893
 H   9.10580091   29.71082928   9.35989929
 H   10.54346998   31.38736475   7.61928932
 H   9.17792500   32.51032510   10.11588213
 H   9.37001947   33.38777989   8.61436008
 H   8.25898732   31.38039065   7.42344531
 H   7.25009792   32.50514922   8.30879643
 H   11.43078904   29.80866023   9.06922655
 H   10.81979022   30.53200834   10.40018112
 N   12.17217505   33.12887841   9.92073851
 C   11.82550407   32.95429871   11.31466439
 C   12.02938905   34.34288785   11.93949630
 O   12.84795622   35.10913071   11.46214112
 C   12.81897205   32.00971712   12.04135280
 C   13.13124309   30.71516130   11.34204479
 C   13.86027107   30.58147734   10.19739598
 C   12.77152088   29.37987999   11.75367357
 C   13.32881416   28.48641884   10.82758895
 C   12.01876891   28.88061282   12.81771456
 N   13.99213623   29.24494157   9.88303758
 C   13.17476327   27.10395352   10.92775767
 C   11.87009959   27.50811647   12.94015244
 C   12.43785700   26.62948645   12.00605869
 H   12.95906511   33.75234369   9.79529184
 H   10.80730529   32.60526456   11.42313387
 H   12.43695825   31.80932116   13.04742477
 H   13.74587551   32.57779443   12.16365816
 H   14.30182386   31.34374235   9.57597711
 H   14.39621256   28.89609160   9.03467232
 H   11.52846992   29.54968629   13.51221922
 H   13.61408195   26.43144528   10.19998609
 H   11.30112559   27.10146759   13.76594086
 H   12.29818482   25.56238487   12.12693177
 N   11.39507539   34.66195515   13.10283307
 C   10.22998019   34.04270041   13.71527304
 C   8.98696804   34.34440028   12.88865435
 O   8.77642232   35.46811152   12.46601291
 C   10.09881685   34.64266459   15.15260424
 C   8.71664141   35.13760005   15.55127885
 O   10.63363326   33.75341550   16.10881193
 H   10.12204996   32.94224605   16.05693727
 H   11.51443887   35.64557821   13.31409004
 H   10.39689379   32.97675661   13.78995380
 H   10.77556695   35.50399675   15.16067551
 H   7.95129890   34.37057033   15.44283117
 H   8.42708006   35.99542236   14.94053356
 H   8.74459068   35.44180247   16.59994529
 N   8.06336024   33.35447947   12.65061205
 C   7.85321803   31.98671603   13.11664579
 C   7.51444159   31.93367807   14.58360483
 O   6.39209476   32.02841841   15.00931207
 C   8.92067645   30.99690435   12.68875377
 C   8.69627098   29.54247989   13.10975234
 C   7.25268383   29.12154702   13.34196443
 N   6.39852286   29.34365229   12.16320119
 C   5.07114199   29.46246237   12.25105364
 N   4.51238670   29.76533568   13.44556448
 N   4.30654205   29.21837846   11.16885140
 O   8.57516547   31.79713558   15.41737796
 H   8.17911862   31.79166415   16.30123550
 H   7.27125687   33.74890489   12.17490410
 H   6.92006372   31.71955483   12.62010664
 H   9.89200271   31.31538937   13.08105311
 H   8.98766335   31.05503852   11.60040774
 H   9.15302529   28.88613429   12.35878245
 H   9.23213850   29.35216717   14.04397389
 H   7.23499159   28.06119226   13.61278281
 H   6.86265099   29.66047438   14.19468821
 H   6.75490649   29.03023857   11.26721716
 H   3.51873097   29.93421653   13.48178202
 H   5.05626281   30.30338858   14.10626870
 H   4.75593488   29.36665837   10.27042490
 H   3.34737758   29.53443337   11.20167307
