21
conf-197
 N   6.75588070   31.95707093   12.80273040
 C   7.09386311   33.35986524   12.97401254
 C   6.78210583   34.09996985   11.67248390
 O   5.95312045   34.99263212   11.67801432
 C   8.51160074   33.64866719   13.49793555
 C   8.55334497   33.65390234   15.03315864
 C   7.96119338   32.39185156   15.61451125
 O   8.51882151   31.31962831   15.65258118
 O   6.70111294   32.55965040   16.06083926
 H   6.41863881   31.71572263   16.43257604
 H   6.37650872   33.78309688   13.68167060
 H   9.20795055   32.90112669   13.12578125
 H   8.85740545   34.62287258   13.12948009
 H   7.96925157   34.49645601   15.40281392
 H   9.58303972   33.77341380   15.38074314
 H   7.42460795   31.46478789   12.22042897
 H   6.69820296   31.48333639   13.68914996
 N   7.35457418   33.70272741   10.48319361
 C   8.70798542   33.22824834   10.26709289
 C   9.61272871   34.43428470   9.97636344
 O   9.15013774   35.52520660   9.70202595
 C   8.75702772   32.28077446   9.05838125
 C   8.11199973   30.95457648   9.31804390
 C   6.87117065   30.69525234   9.83161413
 C   8.74066071   29.67602517   9.10886913
 C   7.84071591   28.69048533   9.52650784
 C   10.00368808   29.30952231   8.64514588
 N   6.71159805   29.33553412   9.96273153
 C   8.16789307   27.33468176   9.51235472
 C   10.33438583   27.96849009   8.61172427
 C   9.42895881   26.98888333   9.04437667
 H   7.08875886   34.38245874   9.77623459
 H   9.07066789   32.72014187   11.14632550
 H   9.79151951   32.11513950   8.75620248
 H   8.26742222   32.79051350   8.22715276
 H   6.08592037   31.35941467   10.13807587
 H   5.88064554   28.88765117   10.29738167
 H   10.71980528   30.06955532   8.35069427
 H   7.47524918   26.58509482   9.87804306
 H   11.32528691   27.66792446   8.28817836
 H   9.73301841   25.95012944   9.04257152
 N   10.96223056   34.21525317   9.93783604
 C   11.71567529   33.15212275   10.55226418
 C   11.84703480   33.37383379   12.05377701
 O   12.01830908   34.49883902   12.49958070
 C   13.14664259   33.10482865   9.96777169
 C   13.77601883   34.47546350   9.80329318
 O   13.90940649   32.33617204   10.88723328
 H   14.52262981   31.76316855   10.42312947
 H   11.44962324   35.09788362   9.92675950
 H   11.25428810   32.18777759   10.38614968
 H   13.09291195   32.60531286   8.98948872
 H   14.83779785   34.36420978   9.57490831
 H   13.67137950   35.04905111   10.72437923
 H   13.30134208   35.01851706   8.98529648
 N   11.83890511   32.30846315   12.90367418
 C   11.59951452   30.86705463   12.80150738
 C   12.79407025   30.08916070   12.24691436
 O   13.72804088   29.81705282   12.95815787
 C   10.23203556   30.46227980   12.26291039
 C   9.93833107   28.96005675   12.28685348
 C   10.56948077   28.21874332   13.45457999
 N   10.17574347   28.84139570   14.73031946
 C   10.92308642   28.85562936   15.83140074
 N   12.23810040   28.52744434   15.74880108
 N   10.35606829   29.14694239   17.02140033
 O   12.75566801   29.61251058   10.98830903
 H   11.95361372   29.87919453   10.52256463
 H   12.05961994   32.62512064   13.83323301
 H   11.62342216   30.57502748   13.85115518
 H   10.10189374   30.82981312   11.23966145
 H   9.49576372   30.96677423   12.89532805
 H   8.85300120   28.82249449   12.30753824
 H   10.27562983   28.50830822   11.34801443
 H   10.25604209   27.17239958   13.45271943
 H   11.64782532   28.22027985   13.33787375
 H   9.19842968   29.06754094   14.84703722
 H   12.81327383   28.64904289   16.56976635
 H   12.72263188   28.69269868   14.87383622
 H   9.47798207   29.65427680   17.00568452
 H   10.96947774   29.39081891   17.78545054
