21
conf-962
 N   12.40099722   31.64489983   11.82129176
 C   12.61362625   33.01596560   12.25725181
 C   12.72757736   33.16605381   13.77046115
 O   13.50039857   33.99262365   14.22762209
 C   11.48175813   33.91182108   11.73352733
 C   11.83208392   34.64964779   10.43735361
 C   12.18392771   33.77089264   9.27427332
 O   11.45918557   33.51297439   8.33727396
 O   13.44888917   33.29638276   9.33790223
 H   13.57936420   32.78666095   8.52934459
 H   13.56812181   33.41923919   11.90336481
 H   10.59791247   33.28112729   11.57605694
 H   11.21451229   34.66481285   12.48227043
 H   12.68473026   35.30702157   10.62137222
 H   10.98760323   35.26922498   10.13343612
 H   12.79065469   31.53280531   10.89926507
 H   12.86087416   30.97061444   12.41783853
 N   11.98132077   32.37977625   14.60688669
 C   10.66541566   31.80983310   14.37365667
 C   9.64148588   32.72840352   15.04822332
 O   9.91342543   33.24890649   16.11837429
 C   10.61782553   30.43077119   15.05670882
 C   11.53007733   29.47249189   14.36401579
 C   12.88172877   29.35268992   14.53066422
 C   11.15700435   28.56937733   13.31207937
 C   12.31680628   27.90841510   12.89606327
 C   9.93172141   28.29454324   12.68476471
 N   13.35558293   28.37944226   13.67091435
 C   12.31061115   26.96504529   11.86640155
 C   9.92023084   27.37465443   11.64987620
 C   11.09068975   26.71258164   11.25040019
 H   12.07313425   32.72512400   15.55802778
 H   10.50029489   31.73168480   13.30310231
 H   9.61107183   30.01137590   15.05508937
 H   10.91762603   30.58264143   16.09414621
 H   13.54007555   29.89532457   15.19519505
 H   14.32349786   28.16086372   13.52635630
 H   9.01792871   28.79690505   12.98937000
 H   13.21641485   26.45520612   11.55899590
 H   8.98957096   27.15828521   11.13810966
 H   11.04149176   25.99011716   10.44438993
 N   8.43071799   32.93591420   14.46732643
 C   7.77120036   32.22446077   13.38978803
 C   6.76000001   33.22757964   12.83347269
 O   6.22563878   34.02162819   13.58493382
 C   7.12169504   30.91411936   13.90759609
 C   5.86334087   31.11757501   14.72150997
 O   6.93617032   30.00227902   12.83768784
 H   6.05039209   30.09726257   12.48220509
 H   7.84509536   33.57781921   14.98474933
 H   8.50010800   31.94205360   12.63216032
 H   7.87444317   30.44539465   14.54986780
 H   5.05323714   31.50841275   14.10575794
 H   6.04332994   31.82697565   15.53097879
 H   5.54049736   30.16814879   15.15260573
 N   6.38411221   33.22834937   11.50936841
 C   6.83157240   32.50654410   10.31672280
 C   6.04712640   31.17635865   10.13277421
 O   6.26028838   30.40356151   9.25432551
 C   8.36338369   32.46376714   10.18599602
 C   9.10777196   31.13668155   10.33136672
 C   9.28694058   30.29231254   9.07197877
 N   9.78954192   31.03676456   7.91201199
 C   9.04388139   31.68562499   7.01275008
 N   7.70814396   31.59691588   7.02499704
 N   9.67472255   32.42285719   6.06600862
 O   5.00857849   30.98423867   10.96988387
 H   4.96368482   31.75806534   11.55556754
 H   5.81627003   34.04488391   11.32126910
 H   6.45668531   33.12816989   9.49719128
 H   8.72275610   33.13880692   10.96827956
 H   8.64469639   32.95759567   9.25301065
 H   10.10378911   31.37608916   10.72377955
 H   8.63349260   30.50746715   11.08890885
 H   10.01209928   29.50350402   9.27159148
 H   8.34408452   29.81276423   8.81596083
 H   10.76568823   31.29689281   7.95095689
 H   7.17604316   31.86187473   6.21135409
 H   7.22400485   31.02985492   7.70957655
 H   10.57934893   32.79674203   6.34186664
 H   9.09773349   33.09677966   5.58208201
