21
conf-746
 N   9.49422054   29.06183763   10.81750056
 C   9.68095449   28.92801714   9.38025397
 C   11.13783049   28.99338181   8.94237337
 O   11.48922005   28.33851540   7.97365055
 C   8.91900373   30.00396346   8.59825610
 C   7.41247884   29.77599139   8.51743243
 C   6.77484815   29.81446312   9.89641998
 O   6.71934128   30.80609212   10.58842047
 O   6.28416604   28.63982590   10.35077290
 H   6.37542343   27.96085049   9.67335131
 H   9.35607794   27.94502156   9.00367250
 H   9.11967981   30.98405420   9.03285528
 H   9.32223589   30.01954968   7.58095750
 H   7.19483408   28.81981981   8.03112899
 H   6.96284890   30.56721404   7.91311233
 H   8.65398187   28.57631745   11.09976998
 H   10.25233622   28.62423719   11.32972058
 N   12.03809039   29.77317169   9.62171760
 C   11.80522682   31.02668450   10.31797373
 C   12.07230704   32.15538151   9.31783545
 O   12.81146892   31.97796511   8.36443189
 C   12.80454817   31.14856044   11.48038487
 C   12.58949843   30.12580531   12.55809148
 C   12.49318589   28.76534145   12.43180976
 C   12.42884217   30.41384462   13.96156431
 C   12.20226312   29.19895096   14.61803225
 C   12.43336039   31.60430323   14.69317691
 N   12.25784419   28.20953510   13.66824039
 C   11.94073163   29.12715779   15.98827330
 C   12.19306595   31.54221622   16.05387118
 C   11.93777858   30.32068199   16.69285084
 H   12.89091069   29.81902398   9.07192256
 H   10.78265536   31.07111101   10.67309821
 H   12.76801773   32.14623284   11.92245407
 H   13.80137285   31.03717789   11.04938250
 H   12.55801816   28.14185795   11.56545889
 H   12.16806411   27.22761360   13.84936135
 H   12.57084594   32.56205741   14.20362770
 H   11.74823791   28.17886669   16.47727051
 H   12.16255777   32.45978169   16.63064563
 H   11.72272818   30.31629759   17.75392722
 N   11.52415763   33.38392943   9.52542617
 C   10.73139488   33.93431177   10.59995266
 C   9.23635371   33.61454124   10.39239538
 O   8.77991364   33.37673572   9.26997369
 C   10.95890333   35.46885390   10.59745205
 C   10.20272844   36.15727691   9.47742821
 O   10.56974622   35.99662485   11.85635756
 H   10.69920094   36.94733766   11.82315217
 H   11.64505369   33.97047083   8.71332044
 H   11.04247196   33.52942570   11.54755908
 H   12.03568509   35.59709820   10.45670317
 H   10.50197451   37.20402442   9.41454872
 H   9.12984501   36.10873878   9.67695046
 H   10.39021339   35.67144383   8.51733820
 N   8.40106204   33.76718302   11.51014937
 C   8.61003398   33.18500642   12.84947768
 C   9.31228526   34.15245506   13.77148137
 O   8.75214795   34.98448937   14.43802254
 C   9.19992699   31.78013790   12.82278552
 C   9.00612941   30.93875910   14.08510464
 C   7.62760361   31.05894508   14.71434455
 N   6.60014949   30.82083154   13.68836394
 C   5.30034653   31.02267909   13.88851530
 N   4.84357336   31.46396218   15.08121150
 N   4.43604780   30.72770403   12.89621725
 O   10.64881793   33.98378164   13.77978278
 H   11.01357625   34.74789040   14.24659845
 H   7.46639995   33.57536845   11.17645728
 H   7.59121944   33.12933443   13.24520389
 H   10.26229666   31.82831254   12.56998200
 H   8.71752577   31.26015249   12.00195828
 H   9.17880125   29.89243196   13.80794564
 H   9.76544970   31.19304948   14.83045141
 H   7.52527134   30.33639175   15.53051781
 H   7.50523587   32.05624154   15.14563497
 H   6.83132303   30.19062522   12.93656209
 H   3.93860679   31.90662794   15.11899351
 H   5.51819963   31.77515690   15.76047315
 H   4.79364761   30.68002427   11.95332327
 H   3.47811577   31.02003909   13.00061124
