21
conf-549
 N   9.10445141   34.07276851   11.07118224
 C   9.32081855   33.73249156   9.66119830
 C   8.07221030   33.16119948   8.97922887
 O   7.43274741   33.88342540   8.22724485
 C   10.57475007   32.89040569   9.46527678
 C   11.88082175   33.66048249   9.71534503
 C   12.38472918   33.76573245   11.13915171
 O   13.49613299   33.40323901   11.43866299
 O   11.60039761   34.34911183   12.04307883
 H   10.65014360   34.40601164   11.73310548
 H   9.44915060   34.67415109   9.11917835
 H   10.53992750   31.97232456   10.04926842
 H   10.59623921   32.58193363   8.41561021
 H   11.77203564   34.68109494   9.33590434
 H   12.69338821   33.20174788   9.15005449
 H   8.43765695   34.83454693   11.14585370
 H   8.70278226   33.28334559   11.56980824
 N   7.68389655   31.87169069   9.17515930
 C   7.90084575   30.92021506   10.24777397
 C   7.79493855   29.55057872   9.56742416
 O   6.98453665   29.39925151   8.66428823
 C   6.74274458   30.98192362   11.27732179
 C   6.36970606   32.35532599   11.76404273
 C   5.67316606   33.28876111   11.05200676
 C   6.60813516   32.93428294   13.06555725
 C   6.03289003   34.21431625   13.07151654
 C   7.25635504   32.47188036   14.21324906
 N   5.46891990   34.40968458   11.82792637
 C   6.07729436   35.05668763   14.18199815
 C   7.29662706   33.29329273   15.32825026
 C   6.71811913   34.57085817   15.31425324
 H   6.92800728   31.59252117   8.56174983
 H   8.86502792   31.06928278   10.71697358
 H   6.98277495   30.33319111   12.12424842
 H   5.87547298   30.54291244   10.77305376
 H   5.31234392   33.25474124   10.03658459
 H   5.02634281   35.25195465   11.51213580
 H   7.74205194   31.50536162   14.22655955
 H   5.62805536   36.04255866   14.16008259
 H   7.78587916   32.95017466   16.23082612
 H   6.77234180   35.18835639   16.20230009
 N   8.50225005   28.48615938   10.02438662
 C   9.63920403   28.40763840   10.90817295
 C   10.86068588   29.09414591   10.31448171
 O   11.13247352   28.98293192   9.13091909
 C   10.02833518   26.92765555   11.13618765
 C   10.00350067   26.08852153   9.87198526
 O   11.34684573   26.96264383   11.66931462
 H   11.65103060   26.06472417   11.83369771
 H   8.42594304   27.73275914   9.36400031
 H   9.40030011   28.84466426   11.86322164
 H   9.32628950   26.51152203   11.86764078
 H   8.98074588   25.91086033   9.53799792
 H   10.46158557   25.11725722   10.06920384
 H   10.56291153   26.59031152   9.08300605
 N   11.69173632   29.79331265   11.14024849
 C   11.64084302   30.13570633   12.55969584
 C   11.72257955   28.95367206   13.49750608
 O   12.76238457   28.51293353   13.92044538
 C   10.51590144   31.09296350   12.92061931
 C   10.54790716   31.65186250   14.34684153
 C   11.90809083   31.70935611   15.03142565
 N   12.92322136   32.42756205   14.24126156
 C   14.22991585   32.16700848   14.31449064
 N   14.64123984   30.99972266   14.86389675
 N   15.10902422   33.09687666   13.88294045
 O   10.52087387   28.51081949   13.90349604
 H   10.70479297   27.75298333   14.46996916
 H   12.50960665   30.09944830   10.64153453
 H   12.59340600   30.64096263   12.70232589
 H   9.54607320   30.60819979   12.76399127
 H   10.55176689   31.92578874   12.21311195
 H   10.10306131   32.65460347   14.33573810
 H   9.90727384   31.03943096   14.98848270
 H   11.78989023   32.20777188   15.99829076
 H   12.23658125   30.70007812   15.25298279
 H   12.66676076   33.32770830   13.85377006
 H   15.62845665   30.78862057   14.85704019
 H   14.04349854   30.18794639   14.75686905
 H   14.77699759   33.68117818   13.11894987
 H   16.06898321   32.79897229   13.76928668
