21
conf-962
 N   12.80906940   31.22459318   11.87851809
 C   12.82304804   32.62543972   12.33072336
 C   12.85991465   32.70580868   13.86758789
 O   13.94414174   32.78072001   14.42742903
 C   11.69144943   33.43376957   11.69148564
 C   12.08804883   34.16839330   10.40273719
 C   12.41068046   33.27664521   9.24509762
 O   11.68058539   33.04339806   8.30572295
 O   13.64900719   32.73904266   9.31732430
 H   13.75764358   32.20826279   8.51878638
 H   11.85941612   30.85744874   11.87633699
 H   13.79114681   33.06075677   12.05496882
 H   10.85079602   32.77067293   11.46821687
 H   11.32984769   34.18361262   12.39700102
 H   12.96025382   34.79354438   10.60256398
 H   11.27140739   34.81906279   10.08870923
 H   13.14397517   31.20958448   10.91640917
 H   13.39917667   30.60814037   12.45200197
 N   11.70484464   32.72454102   14.59044168
 C   10.45848950   32.01404822   14.37009629
 C   9.38047861   32.81763880   15.09840895
 O   9.63205117   33.31181629   16.18356721
 C   10.53539472   30.61835565   15.02719433
 C   11.54368019   29.74226249   14.36045987
 C   12.87792088   29.70305027   14.60984586
 C   11.30235434   28.85814858   13.25617458
 C   12.52943869   28.31449378   12.87142606
 C   10.13615963   28.51612289   12.56072500
 N   13.49642446   28.86831340   13.69602006
 C   12.64394284   27.42829766   11.80337907
 C   10.23946068   27.63471011   11.49642500
 C   11.47621884   27.09778601   11.12287268
 H   11.88628118   32.87116703   15.57596113
 H   10.26057641   31.93377092   13.30613596
 H   9.56593546   30.11859663   14.99741699
 H   10.79765583   30.78495623   16.07269171
 H   13.45100757   30.24282197   15.34622500
 H   14.44938129   28.55418548   13.76589326
 H   9.17880897   28.93460129   12.84865274
 H   13.60432957   27.02290010   11.50791081
 H   9.35137165   27.36422158   10.93930596
 H   11.53048699   26.40991635   10.28900786
 N   8.14362509   32.95147274   14.54165730
 C   7.52595823   32.22293613   13.44620319
 C   6.46770037   33.18295536   12.88726737
 O   5.70571117   33.74004862   13.66250096
 C   6.96417836   30.86441634   13.94922120
 C   5.64738886   30.96095492   14.68798157
 O   6.87440923   29.93279554   12.89414454
 H   6.12449355   30.21339713   12.33788376
 H   7.50570073   33.47886634   15.12472157
 H   8.25903747   31.98778919   12.68111534
 H   7.72202490   30.46131455   14.62786419
 H   4.85097997   31.22232715   13.98667646
 H   5.68720212   31.71707681   15.47337750
 H   5.40843930   29.99497851   15.13628483
 N   6.43424629   33.53567053   11.56139488
 C   6.81182049   32.77247125   10.38683582
 C   5.96637552   31.45941379   10.24578116
 O   6.04307330   30.88186351   9.15040312
 C   8.33001884   32.56293027   10.26172995
 C   8.85070371   31.12398603   10.30019191
 C   8.87839812   30.34664344   8.98447252
 N   9.45792900   31.11701985   7.87652932
 C   8.79208174   31.83686999   6.97175616
 N   7.45537761   31.89747459   6.93643123
 N   9.50576591   32.51881242   6.04092657
 O   5.27103348   31.13677728   11.21450968
 H   5.64170052   34.14580186   11.41738395
 H   6.48567057   33.39726503   9.55300073
 H   8.79038647   33.12380081   11.08218627
 H   8.67893669   33.06177021   9.35398412
 H   9.89154268   31.16575862   10.67141310
 H   8.30722791   30.53895524   11.04032980
 H   9.51724812   29.46940053   9.12088325
 H   7.89402785   29.98010529   8.70795219
 H   10.42566358   31.39555003   7.99780191
 H   6.99881160   32.09470929   6.05848963
 H   6.90007066   31.40927531   7.63321249
 H   10.46952505   32.72195193   6.29349627
 H   9.02517681   33.30000507   5.61682489
