21
conf-883
 N   10.91368809   28.04894563   13.18453335
 C   11.97171987   28.47722607   12.25460085
 C   13.16919449   29.11484562   12.97492854
 O   14.21987516   28.49045652   13.00175583
 C   11.46658701   29.24388066   11.03369770
 C   10.71913647   28.31589399   10.04945407
 C   9.24888862   28.58585433   9.84083189
 O   8.69595134   28.51244242   8.76883709
 O   8.50985950   28.85208282   10.93278562
 H   9.05067532   28.96708092   11.72058390
 H   10.19576832   27.50511482   12.69845052
 H   12.46034221   27.57228909   11.87751853
 H   10.83692105   30.09625269   11.34000229
 H   12.32479511   29.67712944   10.51635590
 H   10.78742174   27.27590047   10.39112861
 H   11.18967695   28.33552022   9.07007517
 H   11.30780698   27.42113697   13.88506370
 H   10.47597973   28.81349811   13.71504130
 N   13.09222501   30.30627048   13.63983062
 C   12.18505941   31.43030094   13.54328952
 C   13.00154378   32.63247667   13.05663707
 O   14.16950091   32.74581347   13.38730038
 C   11.61243266   31.72996126   14.94035677
 C   10.64535107   30.65528472   15.30418350
 C   10.95180410   29.44948421   15.86593521
 C   9.25669928   30.61593771   14.96428073
 C   8.77644006   29.35338215   15.31908526
 C   8.39995283   31.55339942   14.36699910
 N   9.82537946   28.66123980   15.89193736
 C   7.45970568   28.96293930   15.06301402
 C   7.08701871   31.17955764   14.13104199
 C   6.62920145   29.90087646   14.45686137
 H   14.01353675   30.58754046   13.95692197
 H   11.36731462   31.21450862   12.85789690
 H   11.10289987   32.69332928   14.96640194
 H   12.44951838   31.76505560   15.63828391
 H   11.91789351   29.09533867   16.19809141
 H   9.77702731   27.71368411   16.21716700
 H   8.75333610   32.54416642   14.10095479
 H   7.10120781   27.97328266   15.32019014
 H   6.40943663   31.87741572   13.66221485
 H   5.60232447   29.63702435   14.24176242
 N   12.39654890   33.57791305   12.29074555
 C   11.00285725   33.73369324   11.93229379
 C   10.97520929   34.30450978   10.51050467
 O   11.80304982   35.14113293   10.18800956
 C   10.27837525   34.65675302   12.95267289
 C   10.76589768   36.09047463   12.91912211
 O   8.87234253   34.58759529   12.83776003
 H   8.59083347   34.94834655   11.97675378
 H   13.01955700   34.31854663   11.98999447
 H   10.52481998   32.75922971   11.93352331
 H   10.50250795   34.23897730   13.94256291
 H   10.48615289   36.56558178   11.97377827
 H   11.85285040   36.12874261   13.01462535
 H   10.31743667   36.65326631   13.73947514
 N   10.10583837   33.82727471   9.56434940
 C   8.74606963   33.32104570   9.59882936
 C   7.72967589   34.52739223   9.59465986
 O   6.96103511   34.54118082   8.62248270
 C   8.37688515   32.34858980   10.69684842
 C   6.89452048   31.95164723   10.76966984
 C   6.18351108   31.68271702   9.44640628
 N   6.97721460   30.82689542   8.54886277
 C   7.11688436   31.02626140   7.23276463
 N   6.83573500   32.24221124   6.71595347
 N   7.50410320   30.00742644   6.43965503
 O   7.79759679   35.33470914   10.53270607
 H   10.31623743   34.28761524   8.68691133
 H   8.62692041   32.81910336   8.64362467
 H   8.63727745   32.74051858   11.67581683
 H   8.99821483   31.45990081   10.55264300
 H   6.81734183   31.06290600   11.40158631
 H   6.33888796   32.74745167   11.28168078
 H   5.23578800   31.17372588   9.65073368
 H   5.92421773   32.61917186   8.96395063
 H   7.14635745   29.87410575   8.85545166
 H   6.99984169   32.41766534   5.73696141
 H   6.80902843   33.05665973   7.31994954
 H   7.94134181   29.21326762   6.89873970
 H   7.88094891   30.23591239   5.53071506
