21
conf-84
 N   3.14669804  -4.05697728  -1.71069845
 C   2.20682034  -3.30700282  -0.86346788
 C   0.92816689  -3.10204276  -1.67420319
 O   0.98213351  -3.02721233  -2.89232479
 C   2.78893842  -1.94837649  -0.48832675
 H   2.91997433  -3.80129381  -2.67567937
 H   1.99464660  -3.88797306   0.03387824
 H   3.71627406  -2.07988417   0.07429347
 H   3.00850794  -1.38213860  -1.39662679
 H   2.10057750  -1.36053795   0.12140628
 H   3.01827036  -5.06731485  -1.62149845
 H   4.11343287  -3.82816989  -1.50420613
 N  -0.24586892  -2.94432822  -1.00137565
 C  -0.39029628  -2.89554438   0.43796411
 C  -0.29280676  -4.29201402   1.06049640
 O   0.29471367  -4.47687135   2.11831195
 C  -1.71554172  -2.23879525   0.79153089
 H  -1.00283214  -2.60705069  -1.57801764
 H   0.43018297  -2.32716269   0.88167712
 H  -2.54231643  -2.80055418   0.35464890
 H  -1.73780630  -1.22259848   0.39407638
 H  -1.85154506  -2.19135784   1.87352861
 N  -0.89719746  -5.27500399   0.35374278
 C  -0.93664811  -6.65657292   0.81900611
 C  -1.46424641  -7.45580920  -0.36583370
 O  -2.60832731  -7.29217711  -0.75113380
 C  -1.84695488  -6.81484159   2.02955804
 H  -1.35258622  -5.05070503  -0.51281699
 H   0.08281607  -6.93052383   1.08155519
 H  -1.82613070  -7.84772553   2.38267663
 H  -1.50813242  -6.15681196   2.82772489
 H  -2.86986769  -6.55541821   1.75966524
 N  -0.61111253  -8.28127120  -1.04389169
 C   0.77914051  -8.56958504  -0.77235871
 C   1.73328290  -7.49357770  -1.30338478
 O   2.89964960  -7.48508776  -1.00833966
 C   1.15316383  -9.91727362  -1.38011506
 O   1.21208527  -6.57790997  -2.13298139
 H   0.25684789  -6.71845188  -2.20814029
 H  -1.07901091  -8.80908397  -1.76825546
 H   0.94421861  -8.61348401   0.30792169
 H   0.94924957  -9.90932743  -2.45170064
 H   2.20981704  -10.12409196  -1.22030799
 H   0.56033425  -10.70800107  -0.91635875
