75
77
N         -7.43325        1.13061       -6.45617
C         -6.82866        1.44466       -7.79402
C         -7.12000        0.39514       -8.87885
O         -7.55911        0.75498       -9.96440
C         -5.31466        1.61404       -7.62790
C         -4.96773        2.77425       -6.69992
N         -3.73333        3.29123       -6.86773
O         -5.76012        3.18449       -5.84546
H         -7.28600        2.37202       -8.14174
H         -4.88079        0.69666       -7.21300
H         -4.86434        1.74953       -8.61488
H         -3.42099        4.02679       -6.24753
H         -3.10088        2.93863       -7.57301
H         -7.17089        1.92559       -5.84303
H         -8.45188        0.98247       -6.53319
N         -6.78461       -0.89554       -8.59250
C         -6.56817       -1.85065       -9.67200
C         -7.42255       -3.11935       -9.52702
O         -6.91202       -4.24483       -9.64299
C         -5.07045       -2.21084       -9.79058
C         -4.16359       -0.99687       -9.82650
C         -4.30481       -0.00740      -10.81162
C         -3.15383       -0.84506       -8.86809
C         -3.45518        1.09928      -10.83889
C         -2.29391        0.25675       -8.89525
C         -2.44207        1.23373       -9.88240
H         -6.42161       -1.12965       -7.66277
H         -6.90631       -1.34621      -10.58406
H         -4.79361       -2.84395       -8.94048
H         -4.93792       -2.82975      -10.68441
H         -5.08590       -0.09575      -11.56186
H         -3.03172       -1.59982       -8.09477
H         -3.57602        1.85074      -11.61391
H         -1.50355        0.34060       -8.15406
H         -1.76164        2.08062       -9.92497
N         -8.75634       -3.01068       -9.29986
C         -9.56643       -1.85791       -8.91956
C         -9.37664       -1.40943       -7.45206
O         -9.71156       -0.26474       -7.12654
C        -11.05935       -2.17747       -9.15584
C        -11.55266       -3.36919       -8.33101
N        -12.79532       -3.26785       -7.82157
O        -10.85030       -4.37512       -8.14889
H         -9.24104       -3.89918       -9.19600
H         -9.30448       -0.99107       -9.53105
H        -11.20881       -2.41804      -10.21546
H        -11.63568       -1.27488       -8.93460
H        -13.19090       -4.06522       -7.33983
H        -13.38445       -2.46254       -7.97721
N         -8.88732       -2.33876       -6.61021
C         -8.48957       -2.11623       -5.21941
C         -6.91717       -2.17426       -5.18612
O         -6.33278       -3.12150       -4.62344
C         -9.26951       -3.01123       -4.21106
C         -9.93478       -4.30726       -4.73421
C         -9.03598       -5.55629       -4.75090
N         -7.71573       -5.30777       -5.32420
C         -7.37001       -5.36578       -6.60968
N         -8.18519       -5.85786       -7.56394
N         -6.13778       -4.95177       -6.95963
O         -6.34058       -1.22808       -5.81842
H         -7.02759        0.22356       -6.06794
H         -8.67908       -3.23903       -7.01754
H         -8.75721       -1.07794       -5.01068
H         -8.59768       -3.23692       -3.37512
H        -10.07226       -2.39017       -3.80147
H        -10.78418       -4.54258       -4.08200
H        -10.35907       -4.13931       -5.72930
H         -8.85581       -5.89869       -3.72729
H         -9.51831       -6.38757       -5.27520
H         -7.12498       -4.66431       -4.77202
H         -7.88843       -5.72251       -8.52854
H         -9.18422       -5.89448       -7.40884
H         -5.94334       -4.79215       -7.94355
H         -5.59347       -4.44576       -6.26719
