21
conf-474
 N  -2.50244528   8.88365902  -7.00934573
 C  -3.09646071   8.35833754  -8.26226505
 C  -2.18118231   8.76716651  -9.41523716
 O  -0.98978356   8.51285807  -9.35445905
 C  -4.55110068   8.80907516  -8.38691319
 C  -5.39857183   8.29814727  -7.25731147
 C  -6.01773585   7.05136852  -7.33680032
 C  -5.54304938   9.04087517  -6.08744637
 C  -6.76292534   6.55672611  -6.26875915
 C  -6.28425962   8.54864492  -5.01511540
 C  -6.89571336   7.30396860  -5.10158142
 H  -2.93356486   8.42671335  -6.21289682
 H  -2.65958342   9.89903630  -6.93978464
 H  -3.07635566   7.26365669  -8.22917742
 H  -4.95419435   8.44697777  -9.33424598
 H  -4.58672503   9.90077191  -8.39389065
 H  -5.92222698   6.46052702  -8.24142386
 H  -5.06141948   10.00774020  -6.00232692
 H  -7.23686670   5.58518461  -6.35272076
 H  -6.37895063   9.14146847  -4.11422240
 H  -7.47293077   6.92089402  -4.26775122
 H  -1.49596157   8.70051250  -6.99423213
 N  -2.72061506   9.46727665  -10.45401487
 C  -1.85327753   10.31316444  -11.27003837
 C  -1.24618518   11.48171894  -10.46898865
 O  -0.19444347   12.00730367  -10.80389453
 C  -2.64053551   10.81312311  -12.48233444
 C  -1.89504258   11.71486700  -13.46796706
 C  -0.62226126   11.04960954  -13.98516811
 C  -2.82668190   12.08439333  -14.61883754
 H  -3.69847960   9.69539804  -10.42705859
 H  -1.00923171   9.70297437  -11.59340513
 H  -2.98954316   9.92842633  -13.02174648
 H  -3.52607020   11.34309743  -12.12066525
 H  -1.61277523   12.63282280  -12.94460862
 H  -0.11803237   11.69825719  -14.70569267
 H   0.07378923   10.84684981  -13.17135332
 H  -0.85877058   10.10622476  -14.48716214
 H  -2.33656989   12.76585834  -15.31790760
 H  -3.12277658   11.18771559  -15.16813704
 H  -3.73101031   12.57385687  -14.25091702
 N  -1.96313579   11.89620945  -9.40388215
 C  -1.44831093   12.85408839  -8.45669632
 C  -2.15284693   12.54213658  -7.12676354
 O  -3.08280746   11.74586383  -7.06729587
 C  -1.67634194   14.27360382  -8.96641611
 C  -0.92768297   15.33531721  -8.17630001
 N  -1.34360914   16.61016283  -8.37529977
 O  -0.00404804   15.06227985  -7.42324046
 H  -2.76251041   11.37737513  -9.09386048
 H  -0.36993031   12.71226149  -8.34223874
 H  -1.31104972   14.30077309  -9.99756091
 H  -2.74316978   14.50140877  -9.00116051
 H  -0.86832163   17.34436978  -7.88062488
 H  -2.09235705   16.82897659  -9.00698443
 N  -1.65531686   13.15459438  -6.03960115
 C  -2.24942249   13.05535785  -4.71127185
 C  -2.71397267   11.62890324  -4.45207518
 O  -3.85392303   11.29590514  -4.18497018
 C  -3.36369992   14.08765020  -4.47238361
 C  -3.28565507   14.74132916  -3.09606158
 C  -3.54073354   13.84333620  -1.88692374
 N  -2.64848314   12.70044548  -1.77872282
 C  -1.31304068   12.83209573  -1.50045524
 N  -0.74963583   13.97998445  -1.40813329
 N  -0.69743061   11.57718735  -1.38148036
 O  -1.71778560   10.72340244  -4.53071102
 H  -2.19788450   9.91856650  -4.30591177
 H  -0.88991222   13.80757704  -6.17654278
 H  -1.43151698   13.26403629  -4.01589971
 H  -4.33325690   13.61474954  -4.63615033
 H  -3.26424647   14.88100406  -5.21767459
 H  -2.30657256   15.20793389  -2.97699180
 H  -4.02010643   15.55254289  -3.04623264
 H  -3.46378111   14.45956126  -0.98275304
 H  -4.55536882   13.44121658  -1.93341932
 H  -3.07020276   11.86293475  -1.41965517
 H   0.24434025   13.86003763  -1.22178531
 H   0.30550301   11.63628022  -1.30026075
 H  -0.97806024   10.94394209  -2.12112435
