21
conf-684
 N  -1.99441651   12.38390642  -9.26282031
 C  -1.47026397   11.28116028  -10.10923804
 C  -2.66112688   10.43453075  -10.54807229
 O  -3.55961833   10.94670016  -11.20254242
 C  -0.36607637   10.51324574  -9.38215820
 C   0.77444832   11.41227728  -8.99796358
 C   1.78772432   11.70850096  -9.90928498
 C   0.80580331   12.01103123  -7.74239653
 C   2.81547361   12.58523495  -9.56911666
 C   1.82602225   12.89509125  -7.39812176
 C   2.83448375   13.18395367  -8.31174292
 H  -2.79770639   12.82535671  -9.71200857
 H  -1.26862444   13.08084904  -9.11433116
 H  -1.04309600   11.71272731  -11.01914460
 H  -0.00588743   9.72297386  -10.04058972
 H  -0.76955609   10.03805610  -8.48314678
 H   1.77313454   11.24752820  -10.89107963
 H   0.01330809   11.80331406  -7.03299205
 H   3.59630048   12.80069203  -10.28968203
 H   1.82991935   13.35479735  -6.41604569
 H   3.63105534   13.86972853  -8.04506881
 H  -2.28440705   12.02169596  -8.34438818
 N  -2.72716930   9.14070236  -10.11940762
 C  -4.03252622   8.51940553  -10.01020043
 C  -4.77710428   8.87526735  -8.71083219
 O  -5.92242438   8.49601652  -8.52916706
 C  -3.97685520   7.00693374  -10.16636967
 C  -3.34474588   6.53455108  -11.47880403
 C  -3.55156401   5.02987022  -11.62480552
 C  -3.91435957   7.28951808  -12.67582731
 H  -1.99746347   8.78491357  -9.52774269
 H  -4.65706175   8.94298167  -10.80322458
 H  -3.45060353   6.55723375  -9.31873578
 H  -5.00908530   6.64809060  -10.12088340
 H  -2.26748861   6.72643338  -11.43641310
 H  -4.61693780   4.80108524  -11.71138265
 H  -3.05066944   4.64633960  -12.51694803
 H  -3.15845610   4.48842728  -10.76071990
 H  -5.00886907   7.24638769  -12.65972113
 H  -3.61701930   8.34094002  -12.68570509
 H  -3.57376614   6.83988735  -13.61185646
 N  -4.10010180   9.63727782  -7.82830723
 C  -4.68987524   10.15136749  -6.61560431
 C  -3.84906638   11.36413007  -6.20695790
 O  -2.68396681   11.48974612  -6.57129632
 C  -4.73849761   9.07985957  -5.52552525
 C  -5.55447347   9.52086891  -4.32062636
 N  -5.28700201   8.87227410  -3.16021422
 O  -6.40833712   10.39205315  -4.40006072
 H  -3.14568889   9.87761272  -7.99031846
 H  -5.72058366   10.44893262  -6.81967127
 H  -5.22496808   8.20452282  -5.96089951
 H  -3.73360698   8.77752927  -5.22713734
 H  -5.83336727   9.11565567  -2.35277237
 H  -4.61903824   8.12468588  -3.11199546
 N  -4.46980172   12.27754942  -5.43161836
 C  -3.78248029   13.44693252  -4.89820650
 C  -3.01763160   14.13494132  -6.01603815
 O  -1.82885328   14.39332995  -6.00364973
 C  -2.91598824   13.11484004  -3.67115858
 C  -2.83972659   14.25545880  -2.63123525
 C  -1.43185180   14.78874001  -2.36023505
 N  -0.88839029   15.54769362  -3.46853521
 C  -1.37346875   16.80989584  -3.73337027
 N  -1.98734641   17.47632641  -2.82668109
 N  -1.03813851   17.25389027  -5.01577873
 O  -3.80185816   14.41164300  -7.07215047
 H  -3.20360489   14.75992607  -7.74620885
 H  -5.37673871   12.03431700  -5.04614827
 H  -4.57962061   14.13911894  -4.60118829
 H  -1.92794180   12.81160487  -4.01294133
 H  -3.34662933   12.23832076  -3.18259215
 H  -3.45766699   15.10526146  -2.93391870
 H  -3.26529845   13.90010083  -1.68755482
 H  -1.44618748   15.44966174  -1.49152971
 H  -0.74071796   13.96669501  -2.14973220
 H  -0.69800788   14.99348774  -4.28907942
 H  -2.23221993   18.40126111  -3.17283231
 H  -1.48242782   18.12115543  -5.26794377
 H  -1.13177451   16.55061474  -5.73857400
