21
conf-549
 N  -3.88959411   9.29026208  -7.55941891
 C  -3.03715253   8.60492070  -8.55848326
 C  -1.83160501   8.02852262  -7.81883283
 O  -2.00534942   7.28539863  -6.86719078
 C  -2.70693412   9.57793064  -9.68864423
 C  -3.96062541   10.16299775  -10.27063071
 C  -4.76205964   9.39773135  -11.11224988
 C  -4.38006774   11.44461885  -9.92448243
 C  -5.94179559   9.91246425  -11.64323830
 C  -5.55430942   11.96726513  -10.46307002
 C  -6.34087098   11.20494272  -11.31920494
 H  -4.01076949   8.71635722  -6.72160467
 H  -4.80125320   9.49755871  -7.96875669
 H  -3.58772872   7.75898990  -8.98063806
 H  -2.13900016   9.04746340  -10.45354738
 H  -2.08197476   10.38765855  -9.30656006
 H  -4.45147372   8.38594384  -11.34917638
 H  -3.79354862   12.03012434  -9.22323061
 H  -6.54565109   9.30094501  -12.30367112
 H  -5.86043297   12.97064950  -10.20466386
 H  -7.25702790   11.61429286  -11.73233607
 H  -3.45209540   10.18779939  -7.30283559
 N  -0.58954187   8.43465795  -8.20573835
 C   0.51686244   8.37983973  -7.25656587
 C   0.34020843   9.35378790  -6.07459264
 O   0.91017161   9.16752089  -5.00895705
 C   1.82241005   8.64614447  -8.00985595
 C   3.11711558   8.61540232  -7.19616339
 C   3.27864641   7.29378436  -6.44975511
 C   4.30233148   8.86845517  -8.12368683
 H  -0.50759717   9.07647817  -8.97339109
 H   0.52918784   7.38115114  -6.81906928
 H   1.89300561   7.88977149  -8.79626852
 H   1.73706487   9.61863014  -8.50311811
 H   3.07734186   9.42252679  -6.45932835
 H   3.29064944   6.45494172  -7.15268125
 H   4.21928916   7.28132548  -5.89362861
 H   2.46614209   7.14188637  -5.73936766
 H   4.19513370   9.82013751  -8.64864637
 H   5.24042637   8.89701983  -7.56460859
 H   4.37462679   8.07347165  -8.86945032
 N  -0.44787174   10.42387887  -6.30240776
 C  -0.78628504   11.36865014  -5.26629364
 C  -2.11687067   11.99852245  -5.69793307
 O  -2.59141742   11.78135554  -6.81007039
 C   0.34484070   12.37725972  -5.08012609
 C   0.19925382   13.23128349  -3.83153510
 N   0.99708980   14.32651820  -3.77837485
 O  -0.57302256   12.94705104  -2.92723695
 H  -0.98762153   10.49718121  -7.14135591
 H  -0.91522987   10.84076438  -4.31784998
 H   1.27195438   11.80199643  -4.98946738
 H   0.44654498   13.00524429  -5.96706963
 H   0.94650265   14.90667480  -2.95934380
 H   1.64876132   14.54177972  -4.51096730
 N  -2.73197192   12.78568839  -4.80322961
 C  -3.98853270   13.46692188  -5.08510672
 C  -5.07644930   12.43681937  -5.41380080
 O  -5.74158929   12.39523198  -6.43407442
 C  -3.87017035   14.52813046  -6.18112187
 C  -5.02696709   15.53722234  -6.14413956
 C  -5.40396304   16.02507558  -7.54025200
 N  -6.07793708   14.96730613  -8.29015483
 C  -7.44521276   14.82197238  -8.12314621
 N  -8.18270937   15.81287289  -7.79323756
 N  -7.87588185   13.52577185  -8.44364233
 O  -5.22575243   11.56001080  -4.42757656
 H  -5.93613178   10.96558593  -4.69959118
 H  -2.30935982   12.88781113  -3.88631769
 H  -4.28542520   13.93891951  -4.14292340
 H  -3.82712313   14.01227322  -7.13404919
 H  -2.92301736   15.05825163  -6.07051002
 H  -5.91885159   15.10236687  -5.68166404
 H  -4.74041146   16.38532569  -5.51553090
 H  -6.07981809   16.88020830  -7.49430556
 H  -4.51795826   16.32513474  -8.10515349
 H  -5.60404841   14.08488101  -8.17649487
 H  -9.16033261   15.53444528  -7.75267770
 H  -8.86574122   13.39858918  -8.30184515
 H  -7.32841599   12.80202827  -7.98596352
