21
conf-879
 N  -2.13995205   13.58878981  -6.38839339
 C  -3.41886403   14.15673531  -5.90047148
 C  -3.99318456   13.19147659  -4.86408641
 O  -3.33472128   12.90323666  -3.87838661
 C  -4.33840280   14.48094005  -7.07433864
 C  -3.70286247   15.48183525  -8.00105440
 C  -3.58895787   16.81758933  -7.62410882
 C  -3.16216834   15.07713656  -9.21688714
 C  -2.97207852   17.74265056  -8.46022601
 C  -2.52930421   15.99441472  -10.05258301
 C  -2.43738188   17.33094451  -9.67837569
 H  -1.51202773   13.41737454  -5.60011820
 H  -1.69716688   14.23121143  -7.04686554
 H  -3.20872615   15.08994712  -5.36858894
 H  -5.27632515   14.88245934  -6.68612782
 H  -4.55814014   13.56611122  -7.62443514
 H  -3.98724076   17.12551912  -6.66351433
 H  -3.22183949   14.03202837  -9.50448003
 H  -2.90196252   18.78007245  -8.15336210
 H  -2.11190941   15.66254500  -10.99576348
 H  -1.95086578   18.04761664  -10.33045628
 H  -2.29980519   12.68402893  -6.86729010
 N  -5.20189027   12.62877036  -5.12256139
 C  -5.66944798   11.47916316  -4.36368985
 C  -4.83897242   10.20760900  -4.62154081
 O  -4.78028771   9.31301011  -3.79050545
 C  -7.14880656   11.25053560  -4.68800381
 C  -7.84321441   10.08583821  -3.98089377
 C  -7.72428999   10.20053190  -2.46343429
 C  -9.30609043   10.03138134  -4.41217624
 H  -5.73191013   12.92293459  -5.92328301
 H  -5.54687639   11.70012773  -3.30162848
 H  -7.67759720   12.17290605  -4.43282392
 H  -7.23969453   11.11218849  -5.76874077
 H  -7.35722962   9.15708374  -4.29360833
 H  -6.68174564   10.17529081  -2.14727005
 H  -8.17329920   11.13509336  -2.11314727
 H  -8.24443380   9.37246164  -1.97576411
 H  -9.82388978   10.94421216  -4.10888647
 H  -9.39308927   9.93355046  -5.49639450
 H  -9.81874866   9.18141927  -3.95602966
 N  -4.23737223   10.12348055  -5.82706045
 C  -3.29704566   9.06669011  -6.12050028
 C  -2.24318270   9.69146322  -7.04404921
 O  -2.32554324   10.87080803  -7.38381945
 C  -4.04240867   7.86663065  -6.69848735
 C  -3.21844896   6.59266748  -6.79129054
 N  -3.77374000   5.59413851  -7.52089390
 O  -2.13579594   6.46398293  -6.23718032
 H  -4.12959993   10.93853137  -6.40650462
 H  -2.81919886   8.73695680  -5.19256631
 H  -4.88337516   7.67183261  -6.02548736
 H  -4.47023513   8.11762858  -7.67081874
 H  -3.26592555   4.73084194  -7.60421267
 H  -4.66796067   5.69858368  -7.96525948
 N  -1.23854340   8.89209520  -7.43004089
 C  -0.13323334   9.37079085  -8.25703445
 C   0.71524302   10.32206224  -7.43621542
 O   0.70314862   11.53616167  -7.51474386
 C  -0.58878182   9.95505551  -9.59604521
 C   0.51260574   9.95093767  -10.67584374
 C   0.85889080   11.33596140  -11.23010633
 N   1.50031754   12.19988730  -10.26283707
 C   2.80481320   11.97521210  -9.88996410
 N   3.56050028   11.22136596  -10.60263015
 N   3.17956342   12.71191213  -8.76342565
 O   1.46681639   9.65923391  -6.54102234
 H   1.93634238   10.33498928  -6.03143454
 H  -1.17514933   7.97537109  -6.99920261
 H   0.48440847   8.48459493  -8.43976394
 H  -0.97721540   10.95575593  -9.43329795
 H  -1.43413173   9.36230667  -9.94122550
 H   1.43934466   9.51552120  -10.29379302
 H   0.19963137   9.31108622  -11.50656907
 H   1.54243862   11.23307990  -12.07496440
 H  -0.04108227   11.85031419  -11.58061716
 H   0.89515621   12.55431585  -9.54109871
 H   4.50208135   11.20261654  -10.21575086
 H   4.10619949   12.49561043  -8.43451820
 H   2.49726064   12.69165987  -8.01545630
