21
conf-746
 N   10.17885914   28.76649163   11.54883153
 C   10.00470506   28.92709289   10.09634197
 C   11.36633520   29.00732452   9.38830887
 O   11.84960860   27.98356574   8.92386004
 C   9.06073292   30.07934489   9.73768690
 C   7.59636474   29.67482085   9.52152293
 C   6.95612522   29.06004553   10.74380380
 O   6.23593390   29.65014926   11.51207514
 O   7.22180181   27.75562952   10.96595263
 H   7.76232794   27.39961232   10.24938352
 H   10.33521051   29.67421498   11.98017795
 H   9.61855381   27.98194776   9.69341573
 H   9.10192260   30.83461661   10.52202866
 H   9.40771694   30.57550560   8.82682942
 H   7.53481591   28.96559566   8.69408801
 H   7.01235957   30.55395254   9.24328964
 H   9.31589519   28.38982391   11.94043503
 H   10.96058983   28.14434872   11.79334817
 N   12.01452725   30.19536158   9.25417877
 C   12.05181749   31.36516047   10.10926601
 C   12.42005219   32.52865445   9.18884800
 O   13.16693585   32.34148808   8.24190503
 C   13.18555698   31.22843672   11.15167428
 C   13.00127581   30.05303419   12.06489313
 C   13.30665532   28.76169369   11.76766699
 C   12.38024655   30.03860712   13.36034584
 C   12.32641976   28.70908902   13.79269188
 C   11.84131313   31.04691048   14.16732040
 N   12.86899183   27.93210815   12.78278333
 C   11.75118215   28.34113089   15.00842336
 C   11.27415127   30.69322125   15.37661199
 C   11.22353683   29.36253336   15.79512977
 H   12.83671896   30.12339002   8.66707644
 H   11.09700783   31.52287153   10.59769118
 H   13.26432660   32.15003347   11.73221010
 H   14.10904854   31.11541722   10.58078219
 H   13.76923739   28.35419049   10.88248686
 H   13.10745702   26.95854855   12.86458122
 H   11.82621108   32.08339084   13.84051310
 H   11.70578234   27.30526924   15.32026847
 H   10.82293716   31.45961381   15.98802666
 H   10.76259823   29.12021590   16.74268133
 N   11.97842915   33.77638701   9.49205074
 C   10.98303044   34.18760033   10.45628506
 C   9.58240321   33.75691721   10.01458464
 O   9.30770982   33.69344480   8.82747220
 C   10.99806056   35.73750973   10.58460335
 C   11.10035694   36.43559186   9.23924976
 O   9.79473805   36.16463923   11.17146835
 H   9.79698055   36.18830645   12.14146983
 H   12.09194842   34.39154992   8.70426488
 H   11.23021710   33.74071014   11.40659551
 H   11.85489551   36.01860094   11.20836469
 H   10.86223056   37.49121756   9.37232130
 H   10.38395464   35.99662799   8.54171563
 H   12.10590714   36.35805269   8.81929849
 N   8.60430282   33.49150250   10.93743343
 C   8.49387678   33.38115173   12.38480266
 C   9.46521990   34.29703318   13.18044952
 O   8.97688275   35.37249388   13.58406191
 C   8.65183042   31.95449350   12.86374001
 C   8.37212721   31.77558424   14.34613642
 C   6.93902576   32.07026497   14.74485456
 N   6.02318086   31.12164576   14.09394806
 C   4.71344033   31.08739222   14.31736513
 N   4.17493071   31.87013586   15.28463029
 N   3.94197241   30.20447901   13.65569557
 O   10.62791276   33.90617012   13.32277288
 H   7.75849369   33.25397897   10.44772827
 H   7.48180667   33.72940931   12.60782117
 H   9.67618970   31.64586910   12.63178044
 H   7.99278354   31.31667505   12.27282071
 H   8.61250851   30.75136679   14.64745920
 H   9.03788910   32.43551389   14.90355282
 H   6.83899037   31.97508219   15.83086476
 H   6.66997698   33.10053256   14.48792927
 H   6.33928445   30.60691207   13.28492834
 H   3.17432649   31.97389105   15.31261168
 H   4.70229796   32.67054453   15.59258268
 H   4.33456109   29.70717780   12.86659279
 H   2.94316861   30.31364379   13.68157961
