21
conf-669
 N   8.62779864   33.70829125   13.91323590
 C   8.42696238   34.61778669   12.77231267
 C   7.04014912   34.43863408   12.14351270
 O   6.26843720   35.38279217   12.15559565
 C   9.53668073   34.54917907   11.72186315
 C   10.74224116   35.45613775   12.00025360
 C   11.59403558   34.92930172   13.12473541
 O   12.47221025   34.11543479   12.97968804
 O   11.30673669   35.37449631   14.36622665
 H   10.60641884   36.03745704   14.32527395
 H   8.56386122   32.73164995   13.60151186
 H   8.35692569   35.64521854   13.14773523
 H   9.88960250   33.52495889   11.63509680
 H   9.12113747   34.82479957   10.74552622
 H   10.40103750   36.46979554   12.22236776
 H   11.37130543   35.50627149   11.10928007
 H   9.54068478   33.83667072   14.34646070
 H   7.91570575   33.85449667   14.63107336
 N   6.62797473   33.22391588   11.64351865
 C   7.40775902   32.16701613   11.03343984
 C   7.28019831   32.30021855   9.50791695
 O   6.37636426   32.94249410   9.00438865
 C   6.84863543   30.79148457   11.42121581
 C   6.95684949   30.48529206   12.88134446
 C   6.47965527   31.21553817   13.93624512
 C   7.54085286   29.29492374   13.44211386
 C   7.39540757   29.37114231   14.83314468
 C   8.18153632   28.18848088   12.87142375
 N   6.74401209   30.54748106   15.10708105
 C   7.87750792   28.37744436   15.69069036
 C   8.65830079   27.19354569   13.71092700
 C   8.51399781   27.29270016   15.10368023
 H   5.75233072   33.36832784   11.14952207
 H   8.44074656   32.23975049   11.32604777
 H   7.35269165   30.00997739   10.84912669
 H   5.80193858   30.77448534   11.11094406
 H   5.96867197   32.15744123   13.95636893
 H   6.47303851   30.85713267   16.01963249
 H   8.36357768   28.14432464   11.80303875
 H   7.75893600   28.45125956   16.76539329
 H   9.19064436   26.34943777   13.28731027
 H   8.91151821   26.50556867   15.73216941
 N   8.14821181   31.58468637   8.73666309
 C   9.41505339   31.00160314   9.11567340
 C   10.45066412   32.10256010   9.30350077
 O   10.46364726   33.06525079   8.55480708
 C   9.95728699   30.04675574   8.00351659
 C   9.54357764   30.49346459   6.61383169
 O   11.36817342   30.06260816   8.02020721
 H   11.75216639   29.32672248   8.51088103
 H   8.10264207   31.89968268   7.78219875
 H   9.28646259   30.45486324   10.02702569
 H   9.58597017   29.03605460   8.20654793
 H   9.81102803   31.54473360   6.48237678
 H   8.47103549   30.37044928   6.45291884
 H   10.08066799   29.89913053   5.87447185
 N   11.38547057   31.99372003   10.29212790
 C   11.65405359   30.97934155   11.29962275
 C   11.61044953   29.55616451   10.68117764
 O   12.69401731   29.16177440   10.21043743
 C   10.75886429   31.04678719   12.52171492
 C   11.13771481   30.03527194   13.61581038
 C   12.61170795   29.64559532   13.65318036
 N   13.48856447   30.81615770   13.71145926
 C   14.40232760   31.14389912   12.79271279
 N   14.86059043   30.22797044   11.90901643
 N   14.93538682   32.38123283   12.85913025
 O   10.53920508   28.94999031   10.69275630
 H   12.01285320   32.77599825   10.25165497
 H   12.67792209   31.16017588   11.61300155
 H   9.71366183   30.88293597   12.23054310
 H   10.82077108   32.05701662   12.93153162
 H   10.83811601   30.44369951   14.58579571
 H   10.56231936   29.11839693   13.47752732
 H   12.79940533   29.03420068   14.53630492
 H   12.85064772   29.02795603   12.79532217
 H   13.15973084   31.57077060   14.29060365
 H   15.56106071   30.53562456   11.25335004
 H   14.19720190   29.59631815   11.46684074
 H   14.34548285   33.12729824   13.20655438
 H   15.55843065   32.66906936   12.12125017
