21
conf-123
 N   10.08680727   33.80989026   13.01410269
 C   8.96320212   34.71316094   12.75121490
 C   7.71692931   34.41290698   13.60429080
 O   7.36067204   35.22758427   14.43950741
 C   8.56870945   34.80038154   11.27943858
 C   9.61162228   35.46439582   10.36696592
 C   10.73966695   34.53351829   10.00026837
 O   10.61727803   33.66484360   9.12846334
 O   11.88149904   34.67753336   10.71305322
 H   12.42731144   33.95261886   10.34485674
 H   9.93324004   32.90576336   12.55551953
 H   9.23812301   35.71803004   13.09588957
 H   8.32399555   33.81063799   10.88802767
 H   7.65668646   35.39558500   11.21022485
 H   10.00098879   36.37827297   10.81031410
 H   9.13613428   35.68951454   9.40980933
 H   10.93054782   34.20011007   12.60026002
 H   10.26725192   33.65474338   14.01902573
 N   6.96358138   33.29733611   13.35626270
 C   7.37316561   31.95329027   12.99238992
 C   6.24133946   31.33129874   12.16545943
 O   5.08572599   31.66886710   12.31984158
 C   7.60455978   31.11823586   14.26759938
 C   8.83158090   31.57248055   14.99493254
 C   8.99015806   32.70348348   15.73578192
 C   10.11296369   30.92489752   14.95863250
 C   11.01883996   31.72020062   15.65712849
 C   10.54113642   29.72753188   14.37866964
 N   10.31915715   32.83882539   16.08370839
 C   12.36307573   31.37062756   15.78974991
 C   11.86898342   29.35692170   14.51390122
 C   12.76834716   30.17276319   15.20997625
 H   6.08544649   33.31489136   13.86232128
 H   8.26123793   31.96935386   12.37330242
 H   7.71296138   30.05733391   14.03760958
 H   6.71294221   31.23626098   14.88558897
 H   8.25984603   33.43951489   16.03210704
 H   10.67114726   33.53562294   16.71780392
 H   9.84898558   29.11605000   13.80909862
 H   13.06504770   31.99890397   16.32408627
 H   12.21687741   28.44868076   14.04146841
 H   13.80474933   29.86945798   15.28474771
 N   6.59939900   30.38467561   11.24491418
 C   7.76076740   29.51771443   11.30230382
 C   8.19784009   29.24506719   9.85851837
 O   7.34195934   28.99602446   9.02471593
 C   7.41701435   28.21699669   12.06319442
 C   6.49534068   27.26612360   11.33753241
 O   8.65572249   27.57024033   12.36806197
 H   8.49484684   26.75080890   12.84592851
 H   5.82740657   30.05944148   10.67693290
 H   8.54770731   30.00698323   11.85189855
 H   6.95053276   28.52119383   13.00910337
 H   6.97901409   26.85840433   10.44770265
 H   5.58460541   27.78085311   11.02914100
 H   6.22162339   26.44061055   11.99523869
 N   9.51559521   29.20236035   9.46696427
 C   10.82052174   29.66834700   9.93566354
 C   11.66172598   28.52884199   10.50391536
 O   12.80137189   28.34273072   10.15292974
 C   10.85748011   30.88264119   10.85345570
 C   12.21296808   31.25791836   11.47197358
 C   13.50812946   31.38626607   10.66100742
 N   13.48093590   32.36888366   9.57997895
 C   13.29599732   31.97380304   8.24233323
 N   13.22728975   30.79566172   7.74962703
 N   13.27518361   33.07673726   7.40821696
 O   11.11399913   27.77419288   11.45267411
 H   10.15555400   27.88710615   11.55985986
 H   9.53433010   28.92279184   8.49656612
 H   11.32723860   29.95883948   9.01409806
 H   10.20847454   30.71832489   11.72279044
 H   10.43230185   31.72815406   10.30746764
 H   12.04365217   32.21537410   11.98380726
 H   12.43240453   30.53469453   12.26703241
 H   14.28569590   31.70459306   11.36176948
 H   13.81986803   30.42303465   10.27912401
 H   14.23664187   33.04351545   9.60370941
 H   13.37101545   30.06751813   8.44571464
 H   12.68927822   33.82403162   7.75963417
 H   13.03162044   32.80285534   6.46594349
