21
conf-205
 N  -5.39205535  -86.17270060   130.38498995
 C  -5.16257619  -87.36790669   129.55663661
 C  -3.84145970  -88.03364336   129.95414228
 O  -3.75478271  -89.15394205   130.44072848
 C  -6.33383846  -88.33554658   129.60644879
 C  -7.67099112  -87.66987936   129.27003085
 C  -7.50175969  -86.85123038   128.02737896
 O  -7.20812794  -85.67821794   128.04916220
 O  -7.62947150  -87.55225286   126.89328027
 H  -7.28149332  -86.99518743   126.15341791
 H  -6.06518335  -85.56291624   129.91712323
 H  -5.04615263  -87.02781435   128.51961473
 H  -6.38226113  -88.78964438   130.59669930
 H  -6.12748046  -89.13854511   128.89807023
 H  -7.98004427  -87.01435773   130.08871592
 H  -8.44446508  -88.42386877   129.12228668
 H  -5.76417432  -86.45684430   131.29173154
 H  -4.54261331  -85.62938006   130.53687980
 N  -2.74906914  -87.24703096   129.75188600
 C  -1.42130895  -87.84875991   129.69949165
 C  -0.60384324  -87.03926112   128.68535627
 O   0.34450168  -86.33164531   128.98191778
 C  -0.78824981  -87.90420985   131.08713869
 C   0.26577899  -88.97263393   131.15477388
 C   1.62446473  -88.69887627   130.99784898
 C  -0.13009509  -90.29943341   131.33226198
 C   2.57223791  -89.72218108   131.05350551
 C   0.80323738  -91.32704757   131.39070262
 C   2.15770014  -91.03509964   131.25361435
 O   3.03141531  -92.08373165   131.32015365
 H  -2.86493370  -86.37264348   129.26239144
 H  -1.55608480  -88.87571710   129.33189145
 H  -0.40019304  -86.92053886   131.34523433
 H  -1.59129241  -88.14705194   131.78360793
 H   1.93692962  -87.67832003   130.81094168
 H  -1.19187088  -90.51756737   131.41284131
 H   3.62561778  -89.48965123   130.94033641
 H   0.49971279  -92.35685836   131.53423835
 H   3.92727308  -91.75581630   131.20910734
 N  -1.09632725  -87.11063558   127.41356386
 C  -0.86991341  -86.02695292   126.47537813
 C  -1.57816321  -84.73165847   126.84858396
 O  -1.51398292  -83.72795614   126.18607245
 C  -1.26139570  -86.41978173   125.04421182
 C  -2.75959583  -86.40879025   124.73858709
 C  -3.59138501  -87.38202009   125.55928956
 C  -5.02197634  -87.55161445   125.06968334
 N  -5.84591453  -86.33585869   125.12614666
 O  -2.30811906  -84.80415584   127.98562130
 H  -2.66073184  -83.91106102   128.11011786
 H  -1.93549359  -87.64172167   127.29066357
 H   0.19797615  -85.79252108   126.50443629
 H  -0.75857846  -85.72354262   124.36385830
 H  -0.84551461  -87.41051062   124.84443968
 H  -2.88414124  -86.65528685   123.67784867
 H  -3.15060751  -85.39715550   124.87116724
 H  -3.11445145  -88.36637041   125.56222286
 H  -3.64033050  -87.05582041   126.60493581
 H  -5.03224117  -87.92812978   124.04523040
 H  -5.52007372  -88.29987530   125.68882358
 H  -5.70353265  -85.78560546   124.29281872
 H  -5.54627469  -85.75422783   125.90220276
