21
conf-472
 N  -5.79418912  -86.66964509   129.73615918
 C  -5.26944176  -87.39328621   128.56046057
 C  -4.23920578  -88.44014260   128.99583629
 O  -4.38656497  -89.64855055   128.85781202
 C  -6.37906836  -88.01216127   127.72569399
 C  -7.40758514  -86.98006652   127.26562993
 C  -6.70204394  -85.82961160   126.60679954
 O  -6.39899783  -84.78872195   127.15332486
 O  -6.36495022  -86.08640125   125.32151662
 H  -5.92619225  -85.29260620   124.99991709
 H  -6.21211136  -85.78598287   129.44333541
 H  -4.74674774  -86.65801365   127.93373312
 H  -6.86846145  -88.79452962   128.30729715
 H  -5.92200681  -88.49570241   126.86319011
 H  -7.98146034  -86.61325382   128.12092290
 H  -8.10669667  -87.42798490   126.55865526
 H  -6.50456872  -87.24636919   130.19083964
 H  -5.06685984  -86.45449653   130.42050203
 N  -3.13192320  -87.91356801   129.58024219
 C  -1.91104630  -88.70504087   129.67460546
 C  -0.73224262  -87.74072940   129.49146618
 O   0.14322122  -87.56296744   130.32167920
 C  -1.86012999  -89.49672308   130.97917816
 C  -0.98493809  -90.71099027   130.83871762
 C  -1.49758709  -91.83717757   130.19127945
 C   0.33434121  -90.74699952   131.28953099
 C  -0.73095414  -92.98396283   130.02610421
 C   1.11565161  -91.89228203   131.12857783
 C   0.57835895  -93.01039589   130.49888015
 O   1.28623335  -94.16396179   130.31010831
 H  -3.03214755  -86.91452102   129.65061323
 H  -1.93374010  -89.41438423   128.83468739
 H  -1.53705640  -88.84388813   131.78798002
 H  -2.88118388  -89.81858854   131.18754492
 H  -2.51234310  -91.79676819   129.80411999
 H   0.75835828  -89.86336723   131.75242588
 H  -1.12776614  -93.86068046   129.52884453
 H   2.13672406  -91.90546643   131.49429824
 H   2.16817295  -94.05651521   130.67491415
 N  -0.79248315  -87.05136987   128.31127558
 C  -0.20078447  -85.73055028   128.21333493
 C  -0.98690989  -84.67019724   128.97210203
 O  -0.74349709  -83.49058153   128.94236106
 C   0.01774532  -85.33027708   126.74544350
 C  -1.14647230  -85.62734605   125.80507349
 C  -2.49957011  -85.05068500   126.20759233
 C  -2.57692295  -83.52511987   126.10954467
 N  -3.73378153  -82.93038345   126.76162198
 O  -1.99460136  -85.16646526   129.71887858
 H  -2.34253960  -84.40073623   130.19625296
 H  -1.66344782  -87.15191906   127.82475230
 H   0.76491159  -85.77759402   128.72007450
 H   0.26588305  -84.26758086   126.72069184
 H   0.90119734  -85.86898879   126.39036114
 H  -1.24665499  -86.70962000   125.68416628
 H  -0.88621719  -85.24651414   124.81262228
 H  -3.27035648  -85.48316821   125.55108160
 H  -2.76105180  -85.37947875   127.21913535
 H  -1.68448735  -83.07252791   126.54292357
 H  -2.57775510  -83.24423204   125.05328481
 H  -3.60765482  -82.91796554   127.76614314
 H  -4.58836476  -83.43893720   126.57352232
