21
conf-304
 N   0.59428046  -88.58259732   128.22678346
 C  -0.06335727  -88.33477955   129.51739476
 C  -1.55428891  -88.65077430   129.55172514
 O  -2.24406839  -88.20224908   130.47107691
 C   0.63469490  -89.00793498   130.69643512
 C   2.08999980  -88.53960414   130.85812011
 C   2.12324114  -87.05174077   130.67277553
 O   2.58044526  -86.49359180   129.70259963
 O   1.47196661  -86.39825636   131.64114163
 H   1.29368675  -85.47632342   131.30858152
 H   0.66683314  -89.57858771   128.02649211
 H  -0.02651990  -87.25503183   129.69688207
 H   0.59976639  -90.09300203   130.57421055
 H   0.07174361  -88.75817671   131.59601133
 H   2.73788037  -89.00148196   130.10912179
 H   2.46742277  -88.80474715   131.84782364
 H   0.12018383  -88.09012188   127.46713396
 H   1.53925077  -88.19482510   128.24537405
 N  -2.08752972  -89.34827299   128.52086827
 C  -3.50869547  -89.12940397   128.20986401
 C  -3.56756658  -87.83219726   127.39611033
 O  -3.62943361  -87.81746625   126.16756373
 C  -4.07097845  -90.33850799   127.46787290
 C  -5.57745927  -90.38455347   127.45553703
 C  -6.32201844  -89.70193625   126.49030360
 C  -6.27411498  -91.10445224   128.42841200
 C  -7.71699865  -89.72900445   126.50236131
 C  -7.66418218  -91.13876659   128.45252254
 C  -8.38677276  -90.44775660   127.48674518
 O  -9.74995446  -90.51350030   127.55417665
 H  -1.48358133  -89.46057720   127.72294703
 H  -4.00022010  -88.99459955   129.17225897
 H  -3.66813329  -90.34763130   126.45461733
 H  -3.69414109  -91.22366489   127.98076111
 H  -5.80708013  -89.13547703   125.72613823
 H  -5.72346266  -91.65522624   129.18094123
 H  -8.27223132  -89.19149314   125.74093646
 H  -8.19670626  -91.69788788   129.21170607
 H  -10.12640073  -89.99899824   126.83589846
 N  -3.36743516  -86.69214156   128.09653798
 C  -2.93305533  -85.47807808   127.40258578
 C  -1.43594228  -85.58040299   127.05430646
 O  -0.57376349  -84.86433836   127.48657343
 C  -3.34830727  -84.21975740   128.15979150
 C  -2.42813808  -83.66251094   129.24101889
 C  -1.99602508  -84.61189065   130.35073240
 C  -0.94403745  -83.96268694   131.24223332
 N   0.39302791  -84.00558770   130.61419495
 O  -1.13223805  -86.58748460   126.22197055
 H  -1.93965665  -87.04837263   125.91950376
 H  -3.20089400  -86.76532421   129.09064855
 H  -3.46768643  -85.49083249   126.45224522
 H  -3.49987127  -83.42627787   127.41719635
 H  -4.33642145  -84.42769945   128.58127575
 H  -2.95068586  -82.81719901   129.70622861
 H  -1.54182271  -83.23615581   128.77624607
 H  -2.86464291  -84.89761162   130.95751987
 H  -1.57958979  -85.53435961   129.94893562
 H  -1.24784254  -82.93561340   131.47048561
 H  -0.87174965  -84.48755482   132.19749772
 H   0.90397251  -83.15279340   130.80533454
 H   0.30935417  -84.06989365   129.60228939
