21
conf-34
 N  -1.10888281  -91.14219942   124.55874037
 C  -1.23441176  -91.04354676   126.02106643
 C  -1.03599076  -89.58886127   126.43422515
 O  -1.19957373  -88.67073719   125.65240236
 C  -2.60145146  -91.53245207   126.50252657
 C  -2.86790414  -93.00542835   126.20915320
 C  -3.23684880  -93.25864936   124.76573996
 O  -3.70160812  -92.42366214   124.03445295
 O  -3.05539657  -94.51917363   124.31079942
 H  -2.67817352  -95.07516637   125.00271564
 H  -1.90721735  -90.68020799   124.11871227
 H  -0.45724565  -91.65304362   126.49633196
 H  -3.37646558  -90.92969833   126.02428308
 H  -2.67735826  -91.34971234   127.57740766
 H  -3.73139765  -93.34280838   126.79396820
 H  -2.01787055  -93.62612665   126.50956325
 H  -0.26497100  -90.67188630   124.23428008
 H  -1.09984734  -92.11117936   124.24831612
 N  -0.66480309  -89.39786073   127.74046694
 C  -0.90168591  -88.10287351   128.35864073
 C  -2.34699671  -88.06375421   128.88297302
 O  -2.98691826  -89.07365968   129.12826458
 C   0.11378991  -87.85006788   129.47932100
 C  -0.02999671  -86.46978026   130.06238701
 C  -0.57909354  -86.28147964   131.32728888
 C   0.31052458  -85.34433839   129.31068243
 C  -0.83662787  -85.00487998   131.81169357
 C   0.06580750  -84.05980628   129.78875372
 C  -0.51595551  -83.88918255   131.04374041
 O  -0.78829775  -82.65660910   131.57106560
 H  -0.81958102  -90.17478205   128.36224639
 H  -0.78043176  -87.34941725   127.58420606
 H  -0.01513534  -88.60840823   130.25545576
 H   1.10402031  -87.98147878   129.04168326
 H  -0.83653257  -87.14409523   131.93286323
 H   0.74125816  -85.48640471   128.32302426
 H  -1.30078474  -84.85984185   132.77977168
 H   0.31954034  -83.20014671   129.17832342
 H  -0.55905491  -81.98646800   130.92140666
 N  -2.87809353  -86.82139039   129.03777040
 C  -4.19766999  -86.67590223   129.59889702
 C  -4.67968469  -85.23163226   129.28946641
 O  -5.79964715  -85.14234601   128.78629415
 C  -4.26260317  -86.90912769   131.11680348
 C  -5.46141281  -86.20258643   131.78390046
 C  -5.08069872  -84.82425969   132.37767569
 C  -6.09772988  -83.71030996   132.12457028
 N  -6.07052766  -83.23709746   130.72560601
 O  -3.88995504  -84.33392269   129.58758956
 H  -2.27244350  -86.00948980   129.08108541
 H  -4.87005367  -87.37380644   129.10086276
 H  -4.29454387  -87.98547866   131.28012059
 H  -3.33395476  -86.55777580   131.58280036
 H  -5.85560983  -86.83088003   132.58884518
 H  -6.27817759  -86.11178637   131.05780336
 H  -4.95477494  -84.93197269   133.46073030
 H  -4.10883845  -84.49588168   131.99907911
 H  -7.10485574  -84.06521298   132.36698433
 H  -5.88645451  -82.87029907   132.79334362
 H  -6.52591928  -82.32983478   130.61909656
 H  -6.51126021  -83.91244477   130.08133963
 H  -5.10004119  -83.20496216   130.36971567
