21
conf-123
 N  -4.81965999  -89.97493021   129.95806210
 C  -3.78564640  -90.15127527   128.92260062
 C  -2.44953075  -89.48495387   129.25926573
 O  -1.50616617  -89.59387165   128.47825469
 C  -3.57531083  -91.60904247   128.50678869
 C  -4.76765449  -92.17495582   127.72295472
 C  -4.93158337  -91.45429135   126.41284070
 O  -5.61044569  -90.46840412   126.23071836
 O  -4.19084651  -91.98793671   125.42023532
 H  -4.36269161  -91.43185965   124.64930865
 H  -5.64196913  -90.54612460   129.75034056
 H  -4.11982457  -89.60907214   128.03393349
 H  -3.39194535  -92.21912830   129.39510337
 H  -2.67547122  -91.65761768   127.89015255
 H  -5.69134345  -92.07126236   128.29757372
 H  -4.61606630  -93.23556651   127.52240074
 H  -4.48480157  -90.24073210   130.88358514
 H  -5.12184266  -88.99865191   129.93259477
 N  -2.37583728  -88.67962363   130.34777737
 C  -1.40677955  -87.57496329   130.34367867
 C  -1.97700334  -86.45253826   129.45401075
 O  -2.50394655  -85.44566227   129.89619781
 C  -1.14581475  -87.11072366   131.77565913
 C   0.14110817  -86.34118764   131.93014746
 C   0.21162265  -84.96881690   131.67606735
 C   1.31236833  -86.99410720   132.31938751
 C   1.41452706  -84.27290217   131.80109964
 C   2.51799159  -86.31276999   132.44602966
 C   2.56787128  -84.94821253   132.18572312
 O   3.77581800  -84.32498738   132.32560684
 H  -3.23464102  -88.49220282   130.83159139
 H  -0.49989962  -87.98966783   129.89954798
 H  -2.00082195  -86.51989650   132.10774377
 H  -1.09606891  -88.00637338   132.39543492
 H  -0.68132270  -84.44186100   131.36547457
 H   1.28347118  -88.05560838   132.53198444
 H   1.44348232  -83.20712858   131.60012398
 H   3.42229473  -86.82679826   132.74705801
 H   3.67531288  -83.39257366   132.11863346
 N  -1.91454744  -86.70136355   128.11536894
 C  -2.86651258  -86.05688018   127.24284877
 C  -4.36511734  -86.36961071   127.65276613
 O  -5.16534574  -85.60987547   127.08988567
 C  -2.66416161  -86.54438606   125.80563146
 C  -3.36665836  -85.70971617   124.71434199
 C  -4.15594622  -86.55293637   123.69667770
 C  -5.64878997  -86.72290329   123.98135561
 N  -5.96708426  -87.41331855   125.24829509
 O  -4.65500706  -87.32176201   128.38554324
 H  -1.58784630  -87.61848363   127.83330330
 H  -2.75660087  -84.97544472   127.32098991
 H  -1.58920662  -86.54583645   125.61128748
 H  -2.97291553  -87.59716131   125.76193492
 H  -2.59268187  -85.14569322   124.18143657
 H  -4.02157630  -84.95517933   125.15358792
 H  -4.08797411  -86.07196287   122.71615251
 H  -3.69174324  -87.53639436   123.58362891
 H  -6.11689356  -85.73262933   123.99696047
 H  -6.10304734  -87.26372532   123.14463666
 H  -5.79848190  -86.76566615   126.04867406
 H  -5.43860237  -88.28331272   125.34282815
 H  -6.95671035  -87.67580761   125.27004001
