62
64
N          0.69481      -88.56784      128.22349
C         -0.03606      -88.31677      129.46869
C         -1.52940      -88.65991      129.56688
O         -2.18288      -88.11746      130.46289
C          0.73731      -88.84128      130.69067
C          2.19130      -88.30394      130.76230
C          2.19261      -86.81785      130.47586
O          2.18736      -86.44489      129.19271
O          2.09615      -85.96322      131.35027
H          0.91247      -89.54973      128.06666
H         -0.08620      -87.22630      129.55166
H          0.76524      -89.93737      130.67983
H          0.18303      -88.53843      131.58304
H          2.82826      -88.82064      130.03884
H          2.59581      -88.46662      131.76314
H          0.22126      -88.18010      127.40735
H          1.98121      -87.23191      128.61107
N         -2.10329      -89.43668      128.61090
C         -3.55326      -89.31427      128.33699
C         -3.60992      -88.02198      127.50259
O         -3.50550      -88.05023      126.26767
C         -4.11773      -90.52766      127.59666
C         -5.61990      -90.41432      127.44242
C         -6.19381      -89.88192      126.28275
C         -6.47078      -90.80282      128.48850
C         -7.57641      -89.74570      126.16342
C         -7.85041      -90.67071      128.38529
C         -8.41062      -90.14061      127.21557
O         -9.76794      -90.03748      127.16982
H         -1.52845      -89.73746      127.83241
H         -4.05154      -89.18949      129.29956
H         -3.63435      -90.60455      126.61659
H         -3.85127      -91.42105      128.17265
H         -5.55299      -89.56372      125.46572
H         -6.04718      -91.22835      129.39621
H         -8.00700      -89.33762      125.25124
H         -8.51119      -90.98045      129.18822
H        -10.04166      -89.69576      126.30422
N         -3.53309      -86.86312      128.21100
C         -3.08063      -85.61071      127.57689
C         -1.56733      -85.79633      127.27986
O         -0.64764      -85.29988      127.90735
C         -3.50392      -84.36152      128.38761
C         -2.53966      -83.75073      129.42319
C         -2.05317      -84.69397      130.53758
C         -0.78708      -84.20242      131.23959
N          0.39168      -84.12217      130.27505
O         -1.28822      -86.66217      126.30279
H         -2.12301      -87.09218      125.96330
H         -3.45485      -86.94426      129.22095
H         -3.59187      -85.57166      126.61020
H         -3.73767      -83.57251      127.66496
H         -4.45691      -84.61838      128.86581
H         -3.05514      -82.89681      129.87971
H         -1.68731      -83.33197      128.88046
H         -2.82632      -84.81100      131.30610
H         -1.85596      -85.70139      130.16222
H         -0.91847      -83.20987      131.67671
H         -0.48293      -84.89121      132.03019
H          1.21693      -84.64814      130.66499
H          0.67456      -83.15919      130.08310
H          0.15496      -84.56224      129.36678
