21
conf-234
 N  -96.37889053  -16.01082937   5.21179819
 C  -97.00414977  -15.82445949   3.88879798
 C  -95.93288536  -15.40219173   2.87290670
 O  -95.50872822  -16.19440806   2.04528731
 C  -98.17336282  -14.82017136   3.95350222
 C  -98.94446595  -14.87230237   5.23662801
 C  -98.67516477  -14.09932468   6.33530504
 C  -100.00437591  -15.76850532   5.61363758
 C  -100.32902555  -15.48981227   6.95207088
 C  -100.69671858  -16.78022710   4.93442075
 N  -99.50122347  -14.46729101   7.36791193
 C  -101.32001832  -16.18560713   7.64613338
 C  -101.68221355  -17.47611347   5.61334367
 C  -101.99029389  -17.18251653   6.95377208
 H  -95.54923889  -16.60113007   5.16266469
 H  -97.36650017  -16.79498979   3.53511669
 H  -97.77813108  -13.80264007   3.86145519
 H  -98.82352109  -14.98435012   3.09016473
 H  -97.92758412  -13.33426583   6.46852223
 H  -99.49009239  -14.06459384   8.28462429
 H  -100.47326443  -17.02069445   3.89917572
 H  -101.55229745  -15.95377598   8.67980195
 H  -102.22770074  -18.26123121   5.10380515
 H  -102.76744460  -17.74711986   7.45485776
 H  -96.11097091  -15.10241284   5.59872038
 H  -97.05222688  -16.42713970   5.85505652
 N  -95.51800161  -14.10893724   2.96930340
 C  -94.55408606  -13.47404378   2.09330474
 C  -93.13070355  -13.98955749   2.35773677
 O  -92.51392464  -14.67124295   1.55476635
 C  -94.90694370  -13.53745190   0.58941046
 C  -94.02035841  -12.53760509  -0.16564736
 C  -96.38201265  -13.22183782   0.34557750
 C  -94.00722032  -12.73481110  -1.67699858
 H  -95.79278277  -13.59226277   3.78301783
 H  -94.58040408  -12.42159638   2.36591860
 H  -94.68236367  -14.54897394   0.24686457
 H  -94.36857829  -11.52923394   0.08103328
 H  -92.99494868  -12.61148807   0.21541247
 H  -96.58477835  -13.12193541  -0.72138148
 H  -97.03412906  -14.00691088   0.72830878
 H  -96.65196804  -12.27518037   0.82242685
 H  -95.00233098  -12.64068012  -2.11351486
 H  -93.62629275  -13.72697674  -1.93711842
 H  -93.36247121  -11.99541534  -2.15530858
 N  -92.52020699  -13.65497543   3.54036549
 C  -92.97684747  -12.92365027   4.71763081
 C  -94.04552428  -13.73562550   5.43132679
 O  -95.12559150  -13.31275321   5.77955907
 C  -93.29742339  -11.44316990   4.50699842
 C  -93.50860477  -10.63551591   5.79320138
 C  -92.48195726  -10.94482586   6.87255224
 N  -92.74392876  -12.22678282   7.50337240
 C  -91.71869990  -12.95802227   8.08449168
 N  -90.49304262  -12.62086510   8.23599318
 N  -92.18269114  -14.17488068   8.56935457
 O  -93.65323361  -14.98836645   5.71162911
 H  -92.94480915  -15.25084292   5.11365900
 H  -91.54399261  -13.90971981   3.52128486
 H  -92.11705596  -12.95459209   5.39597701
 H  -92.44388093  -11.02500963   3.96571742
 H  -94.17033010  -11.32083524   3.86720727
 H  -94.50964458  -10.80242310   6.19512473
 H  -93.44477279  -9.57140449   5.54378508
 H  -91.48730342  -10.98759493   6.41593424
 H  -92.45457644  -10.14879327   7.62544111
 H  -93.63213505  -12.32132488   7.96779604
 H  -90.33888803  -11.67183418   7.91346257
 H  -92.82309717  -14.65089156   7.94765139
 H  -91.41773647  -14.74904329   8.88870619
