21
conf-879
 N  -93.95637723  -14.21311334   2.64755802
 C  -93.67239741  -12.78843974   2.90619912
 C  -93.68324071  -12.40157926   4.39198988
 O  -92.73966580  -11.79051944   4.87052372
 C  -94.59225947  -11.85102376   2.08614770
 C  -95.96786054  -12.39052491   1.82070608
 C  -97.07666743  -12.31449491   2.61248639
 C  -96.36791711  -13.11604629   0.63585075
 C  -97.72407898  -13.44734169   0.78544326
 C  -95.68441732  -13.51350864  -0.51565447
 N  -98.13131428  -12.95198966   2.00736873
 C  -98.42711767  -14.17379797  -0.17698120
 C  -96.37051902  -14.23000768  -1.48054335
 C  -97.72791065  -14.55874633  -1.31027903
 H  -93.24922872  -14.81412012   3.06461677
 H  -92.63748231  -12.58382864   2.61685693
 H  -94.65502465  -10.88879382   2.59978568
 H  -94.10274970  -11.66930930   1.12563582
 H  -97.18457034  -11.88153038   3.59028188
 H  -99.05551318  -13.01295618   2.38724198
 H  -94.63686270  -13.26940092  -0.65971981
 H  -99.47332778  -14.42413020  -0.04124500
 H  -95.85712333  -14.54615336  -2.38002323
 H  -98.23637780  -15.12292671  -2.08266878
 H  -94.87749297  -14.46142456   2.99672353
 H  -93.98448846  -14.38406465   1.63746131
 N  -94.81406563  -12.69492679   5.08010000
 C  -95.00848510  -12.46186283   6.49995313
 C  -94.10402667  -13.38781880   7.32951315
 O  -93.07943772  -12.98661793   7.86248548
 C  -94.84551641  -10.99362563   6.95474093
 C  -95.39395515  -10.86334563   8.38202269
 C  -95.55449277  -10.02527204   6.01234558
 C  -95.08629634  -9.53288260   9.05979057
 H  -95.54041666  -13.22424795   4.62066822
 H  -96.05093350  -12.72049990   6.67075318
 H  -93.77499006  -10.77764550   6.96860585
 H  -96.47723815  -11.02503269   8.34349056
 H  -94.97996223  -11.67929808   8.98953403
 H  -95.11663764  -10.04405003   5.01385280
 H  -96.61696827  -10.27915754   5.93018499
 H  -95.48273031  -9.00124418   6.37920270
 H  -94.00770599  -9.35433410   9.10442057
 H  -95.46547805  -9.53156271   10.08322017
 H  -95.54099120  -8.69053215   8.53639381
 N  -94.44240365  -14.70338283   7.47484682
 C  -95.55962504  -15.51334320   7.03531047
 C  -95.46803472  -15.67897155   5.52803611
 O  -96.31162160  -15.32954360   4.69238720
 C  -96.92012409  -15.06818856   7.57960453
 C  -98.08971791  -16.03301300   7.34711108
 C  -97.72686714  -17.49425288   7.53775919
 N  -96.97091982  -17.96186928   6.38902613
 C  -96.22864764  -19.12419474   6.46554158
 N  -96.09116729  -19.90637567   7.47103179
 N  -95.62967431  -19.43794769   5.24897970
 O  -94.33094366  -16.31578631   5.14435137
 H  -94.44234276  -16.30501931   4.18816760
 H  -93.73997370  -15.18642879   8.01155152
 H  -95.36107518  -16.51574310   7.42110322
 H  -96.77630584  -14.92145835   8.65052296
 H  -97.18827482  -14.10127538   7.15051106
 H  -98.46561812  -15.91839370   6.32708793
 H  -98.90468194  -15.76280091   8.02426739
 H  -97.11027829  -17.61725110   8.43478086
 H  -98.62391077  -18.10875460   7.68398604
 H  -97.39387057  -17.79689889   5.48868932
 H  -96.65324201  -19.58871707   8.25302521
 H  -95.21087569  -18.65262863   4.77882316
 H  -95.00021421  -20.21875037   5.36049113
