21
conf-474
 N  -93.69246494  -14.80783181   5.96701111
 C  -95.07324908  -15.31899296   6.00741294
 C  -95.49466730  -15.74580252   4.59806458
 O  -94.88154777  -16.63664891   4.02584311
 C  -96.00201613  -14.30216412   6.67088574
 C  -95.55797365  -14.00470785   8.06620847
 C  -94.68507951  -13.01667116   8.42817318
 C  -95.86099720  -14.74564544   9.26171160
 C  -95.13645994  -14.15610447   10.31105035
 C  -96.67710982  -15.85291423   9.52783207
 N  -94.43126479  -13.10012041   9.77951815
 C  -95.18903751  -14.63358393   11.62254182
 C  -96.73821107  -16.33354014   10.82415268
 C  -96.00108871  -15.73138862   11.86049981
 H  -93.63982643  -13.95338015   5.40655114
 H  -95.08188104  -16.23301003   6.61354665
 H  -95.99831981  -13.37732751   6.09405080
 H  -97.02034009  -14.69688466   6.68246981
 H  -94.22011290  -12.25739517   7.81904244
 H  -93.81072041  -12.50311384   10.29209230
 H  -97.25497008  -16.33106512   8.74334998
 H  -94.61859313  -14.16207090   12.41521182
 H  -97.36446029  -17.18898526   11.04819455
 H  -96.07084766  -16.13357961   12.86409251
 H  -93.37711184  -14.59005442   6.91154133
 H  -93.07320845  -15.49533853   5.54169478
 N  -96.53873764  -15.09011932   4.03322937
 C  -97.20001474  -15.54823827   2.82401296
 C  -96.24717011  -15.60517086   1.62116513
 O  -96.13595476  -16.59228329   0.91484912
 C  -97.95387306  -16.89819187   2.98662472
 C  -98.98897849  -17.01889631   1.85931488
 C  -98.64335288  -17.01495178   4.34349591
 C  -99.45090690  -18.44910481   1.61313867
 H  -97.05516404  -14.44325474   4.59526060
 H  -97.96089885  -14.80266622   2.59965257
 H  -97.20441529  -17.68711348   2.88533331
 H  -99.83923617  -16.38072482   2.11948284
 H  -98.56875999  -16.61063084   0.93673933
 H  -97.92729885  -17.11611936   5.16250828
 H  -99.26935264  -16.13662659   4.53515528
 H  -99.29257965  -17.89095129   4.36865627
 H  -99.86461418  -18.90667914   2.51274884
 H  -98.61168046  -19.07092970   1.28541366
 H  -100.21572607  -18.48481155   0.83583999
 N  -95.49636389  -14.49553284   1.30550147
 C  -95.43593048  -13.14963192   1.87298020
 C  -94.57702707  -13.14081748   3.13960131
 O  -94.73853193  -12.38426532   4.07137599
 C  -96.78541282  -12.44534969   1.99904135
 C  -96.73790936  -10.94026390   2.27265177
 C  -95.81978051  -10.15572447   1.35022711
 N  -94.42720273  -10.30540844   1.73612050
 C  -93.43865746  -9.64344375   1.01875957
 N  -93.56945514  -8.97686944  -0.06681775
 N  -92.19495027  -9.75416855   1.63418588
 O  -93.55416655  -13.99813143   3.10962615
 H  -93.72425477  -14.65665362   2.41767908
 H  -95.09792638  -14.60191069   0.38181527
 H  -94.83597927  -12.58690044   1.14963615
 H  -97.31383460  -12.61036791   1.05583578
 H  -97.37938637  -12.91464032   2.78301091
 H  -96.44632123  -10.74836877   3.30675963
 H  -97.75670355  -10.55438534   2.16307138
 H  -95.93171292  -10.49863166   0.31798523
 H  -96.10147433  -9.09310966   1.36045841
 H  -94.26916222  -10.29911927   2.73472835
 H  -94.54410517  -8.95224643  -0.34765962
 H  -92.01101461  -10.65054476   2.05835570
 H  -91.45871122  -9.44978950   1.01437851
