21
conf-696
 N  -97.18475603  -13.97336043   6.16602280
 C  -95.97477374  -14.49630350   6.83176075
 C  -94.66358619  -14.09105692   6.15700529
 O  -93.76201147  -13.58490529   6.80712365
 C  -96.06473359  -16.01945395   6.97977745
 C  -97.18409558  -16.39221768   7.90593223
 C  -98.42606579  -16.82877511   7.54655931
 C  -97.20098137  -16.24122298   9.33882443
 C  -98.48384452  -16.59773545   9.78078509
 C  -96.24055151  -15.81722309   10.26528103
 N  -99.21316027  -16.95796539   8.66989312
 C  -98.85026528  -16.55170759   11.12835101
 C  -96.58975070  -15.77637687   11.60396685
 C  -97.88184856  -16.13655553   12.02955343
 H  -97.18466307  -14.17521644   5.16221458
 H  -95.91189184  -14.06977439   7.83914225
 H  -96.23521883  -16.47459407   6.00287473
 H  -95.11379727  -16.39635230   7.36393563
 H  -98.81552873  -17.05028077   6.56471325
 H  -100.17298718  -17.24288596   8.67307365
 H  -95.24355037  -15.52785285   9.94132325
 H  -99.84749295  -16.83037425   11.45011278
 H  -95.86102645  -15.45576385   12.33865201
 H  -98.12410681  -16.08903491   13.08450211
 H  -98.00325193  -14.43156607   6.57974929
 H  -97.25639148  -12.95884187   6.28320070
 N  -94.56159211  -14.42559594   4.84467535
 C  -93.46384572  -14.07435601   3.96318123
 C  -93.53191802  -12.58209232   3.61429474
 O  -92.82457564  -11.75961049   4.18183491
 C  -92.06270725  -14.47079329   4.46786596
 C  -91.06341178  -14.29733577   3.31712369
 C  -92.04827011  -15.90534803   4.99051225
 C  -89.60037300  -14.41942192   3.72811887
 H  -95.38290612  -14.77297590   4.38118606
 H  -93.64531427  -14.65673561   3.06526073
 H  -91.79663496  -13.78007391   5.26999059
 H  -91.30184292  -15.03861514   2.54651492
 H  -91.22703470  -13.31156834   2.86163848
 H  -92.40300457  -16.59894663   4.22257416
 H  -91.03754810  -16.20464203   5.27041830
 H  -92.67435497  -16.01332862   5.87510217
 H  -89.34510967  -13.68251472   4.49552795
 H  -88.94874692  -14.24491003   2.87013889
 H  -89.36701638  -15.40782327   4.12658232
 N  -94.39008360  -12.13301489   2.65004761
 C  -95.43044359  -12.72135390   1.81072269
 C  -96.65987439  -13.07470104   2.64244429
 O  -96.80034636  -14.15149661   3.17051468
 C  -94.97360658  -13.86001050   0.91069132
 C  -96.02332782  -14.39185729  -0.06822576
 C  -96.46896142  -13.45366178  -1.19227381
 N  -97.30813448  -12.34618084  -0.77677762
 C  -96.82699248  -11.08105122  -0.53409113
 N  -95.73985974  -10.52496856  -0.91033431
 N  -97.66236955  -10.35865112   0.34401279
 O  -97.57216448  -12.12214929   2.78985389
 H  -97.47369905  -11.38909402   2.14545540
 H  -94.32099464  -11.13046590   2.59479014
 H  -95.71357023  -11.88983425   1.17323587
 H  -94.09283528  -13.51622076   0.35413553
 H  -94.65158923  -14.70206914   1.52490148
 H  -96.89524457  -14.74213503   0.48958416
 H  -95.59788983  -15.27971792  -0.54917148
 H  -95.60176246  -13.05405916  -1.72069964
 H  -97.03907993  -14.03773437  -1.91869884
 H  -98.09078884  -12.61640344  -0.20802084
 H  -95.18865444  -11.11345960  -1.53062052
 H  -98.64142413  -10.44067419   0.11400894
 H  -97.37689706  -9.38661961   0.34308063
