21
conf-268
 N  -97.05204386  -15.77509651   5.25415847
 C  -95.95239307  -15.15994905   6.01479111
 C  -94.62279537  -15.08872986   5.26886278
 O  -93.61168689  -14.68335385   5.82845683
 C  -95.75323907  -15.89065444   7.35058835
 C  -96.98912958  -15.77421365   8.18214723
 C  -98.04871547  -16.63728137   8.18605616
 C  -97.35748086  -14.66808668   9.02663948
 C  -98.64977737  -14.92494770   9.51166694
 C  -96.70186179  -13.48685236   9.39625824
 N  -99.04683849  -16.13742720   8.99493249
 C  -99.32134805  -14.04101382   10.35926870
 C  -97.35759698  -12.60502736   10.23857663
 C  -98.65357947  -12.87873447   10.71323072
 H  -97.28236259  -15.20318711   4.43399895
 H  -96.22409981  -14.12864409   6.24898060
 H  -95.53580347  -16.94098581   7.14014098
 H  -94.89263982  -15.46761033   7.86694159
 H  -98.16972789  -17.58030425   7.67889808
 H  -99.94002837  -16.56559809   9.14539057
 H  -95.70183990  -13.26141468   9.03604847
 H  -100.31971957  -14.25903744   10.72212912
 H  -96.86746418  -11.68648191   10.53852026
 H  -99.13901277  -12.16646089   11.36963916
 H  -96.80076782  -16.71835543   4.95742886
 H  -97.87576412  -15.83048595   5.85840310
 N  -94.62118908  -15.50681855   3.98304578
 C  -93.44587965  -15.45114399   3.13758605
 C  -92.84213352  -14.03820728   3.08235110
 O  -91.67343003  -13.81198794   3.35312559
 C  -92.35901267  -16.49425761   3.51457407
 C  -91.40966759  -16.67301244   2.32183574
 C  -92.96834719  -17.83670926   3.91342840
 C  -90.08545998  -17.33216417   2.68754066
 H  -95.49378234  -15.69004328   3.53266654
 H  -93.79154939  -15.71683779   2.13676597
 H  -91.80840188  -16.07683061   4.36123862
 H  -91.93310095  -17.26497624   1.56432956
 H  -91.21332371  -15.69657529   1.86928881
 H  -93.65128223  -18.19467306   3.13717503
 H  -92.19156226  -18.59179940   4.04225520
 H  -93.51713159  -17.76799387   4.85564548
 H  -89.53378829  -16.71708154   3.40521719
 H  -89.45724000  -17.45739984   1.80411925
 H  -90.22614174  -18.31479743   3.13964322
 N  -93.64222472  -12.98335130   2.71908960
 C  -94.97494356  -12.92384598   2.12638496
 C  -96.03224232  -13.20579679   3.18700502
 O  -96.96474362  -13.96036653   3.04660452
 C  -95.17927002  -13.69471397   0.82362449
 C  -96.48140711  -13.35953717   0.08526605
 C  -96.78346223  -11.86669337   0.03374975
 N  -97.27554247  -11.37765652   1.30949172
 C  -97.06373768  -10.07114250   1.71832620
 N  -96.54534261  -9.10722411   1.05418259
 N  -97.54079065  -9.86447733   3.00854135
 O  -95.87741123  -12.48237344   4.30422301
 H  -94.96833663  -12.16498051   4.36842137
 H  -93.07348659  -12.15810980   2.58860120
 H  -95.10120842  -11.86154601   1.88522387
 H  -94.33087238  -13.45185571   0.17864787
 H  -95.15074600  -14.76637284   1.01267680
 H  -97.32236426  -13.87701240   0.55114073
 H  -96.40348112  -13.73691987  -0.93960025
 H  -95.86312379  -11.32454599  -0.20834327
 H  -97.50449731  -11.64410719  -0.76095090
 H  -98.12878954  -11.78893014   1.64976147
 H  -96.34033583  -9.39613214   0.10370316
 H  -97.32449722  -10.60774787   3.65879739
 H  -97.29000397  -8.94572627   3.33988944
