21
conf-34
 N  -95.58222476  -12.60974954   5.46011762
 C  -94.27527678  -13.21343668   5.15706707
 C  -94.28794227  -14.18347488   3.97639464
 O  -93.48035213  -14.07033937   3.06624266
 C  -93.70003082  -13.90064145   6.40330904
 C  -93.47241905  -12.90267836   7.49649553
 C  -94.35709708  -12.57706976   8.48621193
 C  -92.34932386  -12.01182354   7.64262039
 C  -92.62309773  -11.17125157   8.73313160
 C  -91.14918570  -11.85517394   6.93661715
 N  -93.84851992  -11.54183051   9.23892671
 C  -91.74336941  -10.16924564   9.14906222
 C  -90.26833979  -10.86740098   7.34223166
 C  -90.56313586  -10.03199813   8.43527216
 H  -95.52840697  -12.13511469   6.36484531
 H  -93.58066821  -12.42225080   4.85613974
 H  -94.40258669  -14.66062729   6.75069241
 H  -92.76345218  -14.40181922   6.14293945
 H  -95.31648625  -13.01061865   8.71651761
 H  -94.31694731  -11.09611606   10.00402963
 H  -90.90295316  -12.49134970   6.09110393
 H  -91.97792809  -9.53106472   9.99386309
 H  -89.33433521  -10.73212257   6.80999014
 H  -89.85246285  -9.26731936   8.72520113
 H  -95.84548058  -11.94055703   4.73688077
 H  -96.33028193  -13.30805698   5.50703603
 N  -95.15901675  -15.22182371   4.06919898
 C  -95.20887126  -16.33220166   3.14094162
 C  -95.60883292  -15.85424605   1.74035870
 O  -94.85622747  -15.92268485   0.78001502
 C  -93.91520385  -17.18529040   3.10071222
 C  -94.21136277  -18.50540784   2.37811766
 C  -93.37144631  -17.45753469   4.50217799
 C  -92.96704970  -19.29397558   1.98604258
 H  -95.87203344  -15.20241600   4.77590062
 H  -95.99538669  -16.97436862   3.53282222
 H  -93.18145495  -16.61506055   2.52654175
 H  -94.85029675  -19.10907192   3.03130737
 H  -94.79997336  -18.29476657   1.47788802
 H  -94.14028800  -17.92247501   5.12698271
 H  -92.52348113  -18.14251004   4.45918694
 H  -93.02388208  -16.54739927   4.99641521
 H  -92.32633321  -18.70766995   1.32047531
 H  -93.24436258  -20.20870342   1.45914357
 H  -92.36876580  -19.57805510   2.85266751
 N  -96.85590266  -15.30776990   1.56049481
 C  -98.04162961  -15.25300193   2.41199808
 C  -97.81314316  -14.25327931   3.53140504
 O  -97.79423028  -14.51998591   4.70844152
 C  -98.61965464  -16.59275105   2.86146968
 C  -99.98986211  -16.48721857   3.53783424
 C  -101.01694200  -15.68127489   2.75236768
 N  -100.77430541  -14.24637921   2.83151816
 C  -101.11790535  -13.51945700   3.96843556
 N  -101.68661781  -13.94084386   5.03746272
 N  -100.80422770  -12.17330175   3.81687533
 O  -97.61489291  -12.99506405   3.10213604
 H  -97.36176536  -12.99366853   2.17114993
 H  -97.01609932  -15.14502084   0.57783318
 H  -98.79190909  -14.79641183   1.76486586
 H  -98.70238813  -17.21943499   1.96939349
 H  -97.93142809  -17.09590455   3.54298398
 H  -99.89241302  -16.04768922   4.53166496
 H  -100.38375022  -17.49896410   3.67526803
 H  -100.99119691  -15.97364759   1.69835871
 H  -102.03093593  -15.90378896   3.11202062
 H  -100.94486020  -13.72906676   1.98717147
 H  -101.88170034  -14.93407295   4.96644525
 H  -99.90310586  -12.00387350   3.39131088
 H  -100.92992585  -11.67925304   4.68732887
