21
conf-135
 N  -7.71987652   1.05585083  -7.51689263
 C  -8.97817978   0.58643210  -6.95788112
 C  -8.95205356  -0.86016868  -6.45514244
 O  -9.33059984  -1.17195885  -5.33582383
 C  -10.11540107   0.70368896  -7.96549791
 C  -10.60812194   2.12629903  -8.15994481
 N  -11.36427981   2.30337660  -9.28202896
 O  -10.37836402   3.02617860  -7.37513095
 H  -9.21352155   1.20812138  -6.09274819
 H  -9.80949474   0.26830153  -8.91665522
 H  -10.97194085   0.11737022  -7.60730145
 H  -11.81985300   3.19230207  -9.39981066
 H  -11.67632898   1.51164504  -9.81700558
 H  -7.04128291   1.16110731  -6.77670417
 H  -7.34289722   0.43217882  -8.21965695
 N  -8.50240837  -1.77356325  -7.36609574
 C  -8.69345834  -3.19154024  -7.14133110
 C  -7.37203598  -3.92712611  -7.43553131
 O  -7.27513044  -4.79684528  -8.29792711
 C  -9.85803323  -3.76442498  -7.96932543
 C  -11.07684996  -2.87940395  -7.98889153
 C  -11.81782151  -2.65487731  -6.83258819
 C  -11.45295830  -2.22447628  -9.15744972
 C  -12.91867928  -1.80176172  -6.84554009
 C  -12.56359117  -1.38903119  -9.18057788
 C  -13.30261708  -1.17231078  -8.02234114
 H  -8.36588389  -1.47519528  -8.31174389
 H  -8.91846484  -3.29681615  -6.08029196
 H  -9.52975150  -3.93064580  -8.99525736
 H  -10.08780591  -4.74819391  -7.55766917
 H  -11.51542691  -3.14042176  -5.90774051
 H  -10.86246508  -2.36279113  -10.05714590
 H  -13.45701392  -1.61083511  -5.92514536
 H  -12.82630873  -0.86971273  -10.09848356
 H  -14.13697842  -0.47740248  -8.02690980
 N  -6.27536851  -3.54600123  -6.73464963
 C  -6.12787505  -2.50971384  -5.73494816
 C  -5.48021809  -1.21905414  -6.30528258
 O  -5.33721768  -0.20507914  -5.57322337
 C  -5.25789962  -3.00599202  -4.56200673
 C  -3.82838536  -3.15325917  -5.04412936
 N  -2.98115498  -2.15224483  -4.68959157
 O  -3.49076569  -4.10902771  -5.73324730
 H  -5.45495000  -4.10048303  -6.93451707
 H  -7.11308917  -2.22286827  -5.37339854
 H  -5.61538781  -3.98156049  -4.23974504
 H  -5.32061333  -2.30280066  -3.72915461
 H  -2.07364276  -2.17470048  -5.12183855
 H  -3.34833156  -1.27146385  -4.36351136
 N  -5.11025834  -1.31028950  -7.60377780
 C  -4.35338152  -0.26649990  -8.24104315
 C  -4.99915121   0.19873873  -9.53500837
 O  -6.00422286  -0.26535963  -10.06853280
 C  -2.87178304  -0.64180180  -8.35562497
 C  -2.55498854  -2.09867992  -8.68457233
 C  -2.70839273  -2.56854542  -10.12545089
 N  -4.07348191  -2.68691048  -10.63710895
 C  -5.01006826  -3.53656046  -10.18584470
 N  -4.67247910  -4.53199012  -9.35638532
 N  -6.27309387  -3.41778623  -10.62567646
 O  -4.36995441   1.28966927  -10.03059049
 H  -4.91217797   1.47446264  -10.80991483
 H  -5.18405896  -2.20998900  -8.03378977
 H  -4.44568136   0.61199156  -7.60326124
 H  -2.37300308   0.03097154  -9.05624291
 H  -2.45923724  -0.43307896  -7.35940815
 H  -1.50067810  -2.26546226  -8.42605051
 H  -3.12471992  -2.76155604  -8.03437953
 H  -2.19498967  -1.88371877  -10.80271487
 H  -2.21221649  -3.54006914  -10.23369349
 H  -4.44422823  -1.87201935  -11.10718691
 H  -5.40589845  -5.09121794  -8.94347859
 H  -3.72445713  -4.65433999  -9.05781660
 H  -6.96050449  -3.98014094  -10.15086023
 H  -6.58304419  -2.52202233  -10.98089061
