21
conf-306
 N  -7.39287841   0.83633952  -6.45454495
 C  -6.38671158   1.18284790  -7.44305658
 C  -6.66058848   0.37595786  -8.71261944
 O  -7.03674353   0.93694528  -9.73577683
 C  -4.99435506   0.89692080  -6.88150351
 C  -4.62785799   1.84838003  -5.75893190
 N  -5.04442118   1.48130944  -4.51684103
 O  -4.04502273   2.90186803  -5.95995949
 H  -6.44886963   2.23048301  -7.76623058
 H  -4.96531575  -0.13401387  -6.53695756
 H  -4.24924090   1.03412728  -7.66617901
 H  -4.78667067   2.08961503  -3.75908913
 H  -5.42955597   0.57152388  -4.32470487
 H  -7.31589606   1.44880384  -5.65300718
 H  -8.33077595   0.93333472  -6.83065260
 N  -6.47591278  -0.96993857  -8.63019086
 C  -6.55637782  -1.79395756  -9.81648280
 C  -7.27579366  -3.12029753  -9.50673300
 O  -6.66967949  -4.19049854  -9.46764356
 C  -5.16986399  -2.06100585  -10.40314597
 C  -4.47578772  -0.79621352  -10.80404439
 C  -4.75769425  -0.18649711  -12.02715009
 C  -3.55459748  -0.18608444  -9.95078392
 C  -4.13760999   1.00797376  -12.39177841
 C  -2.95242488   1.02038261  -10.29898695
 C  -3.23270816   1.61813480  -11.52407019
 H  -6.25869933  -1.38873168  -7.73351263
 H  -7.14208581  -1.23836397  -10.54931389
 H  -4.58470763  -2.59903635  -9.65759876
 H  -5.28685456  -2.72104847  -11.26262646
 H  -5.48209690  -0.65568109  -12.68853016
 H  -3.33366074  -0.64345371  -8.99234004
 H  -4.36784526   1.46141449  -13.34887991
 H  -2.26021358   1.48738533  -9.60707466
 H  -2.75561967   2.55144351  -11.80030447
 N  -8.60786576  -3.05022236  -9.26172141
 C  -9.40556351  -1.87596867  -9.02420946
 C  -9.45786809  -1.46388503  -7.54858219
 O  -10.01690112  -0.41628660  -7.23268831
 C  -10.83913358  -2.05430464  -9.54411882
 C  -11.58215173  -3.20767663  -8.88191230
 N  -12.91926863  -3.02685104  -8.74883698
 O  -11.01573063  -4.23570450  -8.53544954
 H  -9.03494937  -3.93991928  -9.04232449
 H  -8.94640622  -1.02849837  -9.53808921
 H  -10.79252906  -2.27281073  -10.61303448
 H  -11.39417623  -1.12311117  -9.41821746
 H  -13.45871663  -3.76551239  -8.33240791
 H  -13.37064381  -2.18398615  -9.04944937
 N  -8.87137241  -2.28646710  -6.66223742
 C  -8.64887604  -1.86486007  -5.30353808
 C  -7.15209465  -1.79662433  -5.00979005
 O  -6.29376588  -2.04878124  -5.81097616
 C  -9.49781510  -2.67284679  -4.31547055
 C  -9.57828308  -4.17516236  -4.56786570
 C  -8.37737974  -5.00364521  -4.13872542
 N  -7.12776167  -4.70664910  -4.84891040
 C  -6.87022566  -5.06231644  -6.11392203
 N  -7.78173325  -5.67950247  -6.87220676
 N  -5.63289388  -4.80717411  -6.58851293
 O  -6.82441157  -1.33741207  -3.78659759
 H  -7.60209872  -1.11953930  -3.26276050
 H  -8.36747636  -3.08506968  -6.98913925
 H  -8.98721402  -0.82960911  -5.27204749
 H  -9.16654428  -2.47669076  -3.29180971
 H  -10.50861304  -2.25666532  -4.39298648
 H  -10.43769731  -4.56908446  -4.01402770
 H  -9.79095660  -4.35524176  -5.62167662
 H  -8.17090437  -4.83088954  -3.08010794
 H  -8.62097826  -6.07092444  -4.23709962
 H  -6.30873824  -4.58123187  -4.27476153
 H  -7.67869145  -5.62895389  -7.87408842
 H  -8.71648811  -5.79138369  -6.52054312
 H  -5.55163700  -4.89302023  -7.59657117
 H  -5.26642565  -3.91673284  -6.25868119
