21
conf-60
 N  -7.95660926  -3.25669532  -9.67106844
 C  -8.28732850  -4.13860399  -8.56211880
 C  -8.43926844  -3.40858032  -7.22882583
 O  -9.43806473  -3.52640857  -6.53340253
 C  -7.26003909  -5.24722922  -8.38327661
 C  -7.36942879  -6.34375661  -9.42705055
 N  -6.25492235  -7.12256136  -9.53526535
 O  -8.37123274  -6.53724978  -10.08842431
 H  -9.25538654  -4.59666772  -8.77035102
 H  -6.25591466  -4.83008638  -8.37046295
 H  -7.41393211  -5.72472075  -7.40673451
 H  -6.30836276  -7.93080281  -10.13111221
 H  -5.50501153  -7.04253266  -8.87115897
 H  -8.71239241  -2.59322455  -9.81386731
 H  -7.10633693  -2.73692212  -9.50173595
 N  -7.38400036  -2.61514701  -6.87533104
 C  -7.28017854  -2.09365081  -5.52805494
 C  -6.99277466  -0.57941850  -5.57473398
 O  -5.96951181  -0.09821290  -5.09115578
 C  -6.21283614  -2.83716792  -4.70607474
 C  -6.24550551  -4.32938135  -4.90314138
 C  -7.30602893  -5.09605337  -4.42755848
 C  -5.23936254  -4.96276599  -5.62691199
 C  -7.35117300  -6.47030379  -4.65389631
 C  -5.26949303  -6.33613481  -5.83815534
 C  -6.32723222  -7.09798090  -5.35193121
 H  -6.54214623  -2.66669372  -7.41444801
 H  -8.26105279  -2.24203482  -5.07823041
 H  -5.22410929  -2.46837271  -4.97837639
 H  -6.36589906  -2.56485362  -3.66096522
 H  -8.10836947  -4.60592028  -3.88228969
 H  -4.42784081  -4.36734199  -6.03660403
 H  -8.20142549  -7.04347918  -4.30450030
 H  -4.48266777  -6.80800019  -6.42124997
 H  -6.37700027  -8.16246399  -5.56256067
 N  -7.89762400   0.21067770  -6.19823848
 C  -9.03334489  -0.17429283  -6.99377083
 C  -8.73001973  -0.17928071  -8.50542332
 O  -9.62147701  -0.46454552  -9.31382214
 C  -10.26467171   0.70002049  -6.72097076
 C  -10.06052313   2.15262954  -7.11178125
 N  -11.15086407   2.77425628  -7.61896648
 O  -8.98583529   2.71872031  -6.93312288
 H  -7.62169670   1.17803398  -6.26491803
 H  -9.30182219  -1.19364962  -6.72086316
 H  -10.46824415   0.68062552  -5.64959975
 H  -11.13091318   0.28317695  -7.23785580
 H  -11.06862589   3.73580535  -7.89869936
 H  -11.99807224   2.27005228  -7.79984715
 N  -7.45709452   0.07541501  -8.87985039
 C  -7.18107539   0.29466161  -10.28519270
 C  -5.78221423  -0.09882342  -10.70068365
 O  -5.16340018   0.39236865  -11.60941225
 C  -7.58094381   1.71085286  -10.72157874
 C  -7.12816910   2.82637896  -9.78210820
 C  -5.62101743   3.03267464  -9.68486444
 N  -4.89911666   1.93812225  -9.04466697
 C  -4.95302652   1.60296705  -7.75640159
 N  -5.67971645   2.34834454  -6.90252787
 N  -4.31785855   0.51242237  -7.33642413
 O  -5.30272069  -1.13305884  -9.97726575
 H  -4.47190887  -1.38079350  -10.40035128
 H  -6.83412271   0.46481880  -8.19688531
 H  -7.82517991  -0.41199228  -10.82214677
 H  -7.19882666   1.88631830  -11.72912828
 H  -8.67304209   1.71408829  -10.78152707
 H  -7.55505934   3.76872510  -10.14313259
 H  -7.52692428   2.67281440  -8.78195718
 H  -5.19240431   3.12476931  -10.68257338
 H  -5.41280945   3.97486061  -9.16053766
 H  -4.14792523   1.52727194  -9.57949720
 H  -5.60503534   2.14132522  -5.91998920
 H  -5.84328887   3.30867307  -7.14854350
 H  -4.55534924   0.18061225  -6.41334758
 H  -4.13200061  -0.20843908  -8.01731764
