21
conf-305
 N  -7.37033479   2.01346768  -7.07159553
 C  -6.14588395   1.35920120  -7.53028938
 C  -6.47609076   0.35819135  -8.64867173
 O  -7.06631532   0.76103759  -9.65205524
 C  -5.36592609   0.72573226  -6.38968069
 C  -4.76676840   1.68563454  -5.37078664
 N  -5.59599701   2.66592466  -4.94652492
 O  -3.63844411   1.51607080  -4.93850965
 H  -5.52035697   2.13396338  -7.98886395
 H  -6.02022280   0.03938857  -5.85451629
 H  -4.50583296   0.17515841  -6.77883006
 H  -5.20097862   3.35869757  -4.33460470
 H  -6.45679784   2.82748760  -5.45737417
 H  -7.80680157   2.45743590  -7.86985166
 H  -8.02526318   1.31004491  -6.75037090
 N  -6.08486992  -0.93820625  -8.49710831
 C  -6.02979522  -1.82504057  -9.64546285
 C  -6.66177115  -3.19250339  -9.30557029
 O  -5.97724067  -4.20975141  -9.20365481
 C  -4.59094699  -2.00188387  -10.14919441
 C  -3.93980906  -0.68548164  -10.46214720
 C  -4.25149304   0.00201223  -11.63335962
 C  -3.05941868  -0.09758332  -9.54993014
 C  -3.69619126   1.25166671  -11.89781371
 C  -2.50320287   1.15413741  -9.80947067
 C  -2.82139660   1.83138089  -10.98268789
 H  -5.69365478  -1.26490112  -7.63081446
 H  -6.61740504  -1.34806963  -10.43252647
 H  -4.01986473  -2.53089775  -9.38614712
 H  -4.61922521  -2.64605406  -11.02837595
 H  -4.95476098  -0.44893423  -12.32956996
 H  -2.81702321  -0.62222970  -8.63012247
 H  -3.95126360   1.76922467  -12.81527344
 H  -1.81438763   1.59550928  -9.09908662
 H  -2.38747939   2.80435331  -11.18122241
 N  -7.99983038  -3.22406777  -9.12605347
 C  -8.85107460  -2.06815563  -8.94117573
 C  -8.96256794  -1.66934113  -7.46949293
 O  -8.91183569  -0.49240963  -7.12165406
 C  -10.21820833  -2.24959699  -9.59903619
 C  -11.08462990  -3.33723516  -8.99121097
 N  -12.41473010  -3.19839010  -9.18031766
 O  -10.58948912  -4.28605299  -8.39946682
 H  -8.38189393  -4.12333705  -8.88184652
 H  -8.36757648  -1.22318436  -9.42000115
 H  -10.04908151  -2.51968580  -10.64332973
 H  -10.75724552  -1.30068146  -9.58858369
 H  -13.03109332  -3.88414614  -8.78102274
 H  -12.79687708  -2.40522061  -9.66293868
 N  -9.11469805  -2.66756990  -6.56585205
 C  -9.36013327  -2.26515098  -5.19514883
 C  -8.12575855  -1.45648716  -4.77445649
 O  -7.01067424  -1.93208544  -4.73876621
 C  -9.57704091  -3.38050808  -4.15974546
 C  -10.24047100  -4.69011354  -4.59048264
 C  -9.41617863  -5.60936630  -5.51176566
 N  -7.97134594  -5.38092160  -5.40415335
 C  -7.14937628  -5.25632937  -6.45450692
 N  -7.46007178  -5.88662047  -7.59486039
 N  -6.04226555  -4.51827328  -6.32196408
 O  -8.33536020  -0.18268383  -4.39591929
 H  -9.20878319   0.11846304  -4.66802911
 H  -9.47904018  -3.52562473  -6.93662705
 H  -10.23002485  -1.59942425  -5.20008610
 H  -8.62494425  -3.60432774  -3.67984918
 H  -10.18973281  -2.92619130  -3.37127160
 H  -10.46614666  -5.24398882  -3.67397112
 H  -11.20650448  -4.49236330  -5.06722812
 H  -9.63236156  -6.65781314  -5.28276381
 H  -9.71084521  -5.45378009  -6.54638052
 H  -7.62139039  -5.04481684  -4.52234636
 H  -6.82135335  -5.77671235  -8.37016353
 H  -8.02753986  -6.71739961  -7.54008459
 H  -5.49890719  -4.39518797  -7.16467380
 H  -6.13056192  -3.69341430  -5.72904069
