21
conf-123
 N  -7.69126799   1.81047846  -8.48838148
 C  -8.28987613   1.28736656  -7.27525984
 C  -7.29501853   0.40748626  -6.50565810
 O  -6.36640756   0.97230878  -5.88016935
 C  -9.59207972   0.56221725  -7.51240236
 C  -10.72199904   1.53424275  -7.75987207
 N  -11.66053417   1.11116064  -8.64516170
 O  -10.80575582   2.59108882  -7.15683855
 H  -8.50388943   2.13587225  -6.61479828
 H  -9.48498335  -0.15800860  -8.31537953
 H  -9.88564110   0.03474317  -6.60200052
 H  -12.42950843   1.72876067  -8.84059345
 H  -11.56488138   0.24763134  -9.14546892
 H  -6.93754265   2.43632088  -8.22993761
 H  -7.24638062   1.05653969  -9.00459626
 N  -7.51637007  -0.94873152  -6.52799354
 C  -6.96611798  -1.79383843  -5.48298483
 C  -6.27150651  -3.03235904  -6.07623766
 O  -6.79052869  -4.14694765  -6.03789509
 C  -8.02488413  -2.19438643  -4.42600390
 C  -9.02756282  -1.11288022  -4.08880152
 C  -8.63054805   0.16687658  -3.70831076
 C  -10.39074011  -1.36788850  -4.24579717
 C  -9.57003540   1.18969869  -3.57121479
 C  -11.33210448  -0.35716148  -4.08948470
 C  -10.92208919   0.93197648  -3.76663747
 H  -7.96439615  -1.37192759  -7.33246616
 H  -6.20387991  -1.19563761  -4.98670779
 H  -8.58491663  -3.06385654  -4.77324105
 H  -7.47541333  -2.52081674  -3.53961227
 H  -7.57040171   0.40253128  -3.62796156
 H  -10.71211514  -2.36225416  -4.53702541
 H  -9.21711914   2.18977494  -3.34686591
 H  -12.38235747  -0.57804057  -4.24311963
 H  -11.64809707   1.73299769  -3.67350921
 N  -5.03182920  -2.84558638  -6.61204440
 C  -4.53671390  -1.61121367  -7.18855465
 C  -5.20453432  -1.27232413  -8.52953859
 O  -5.47777306  -0.11913031  -8.85570980
 C  -3.00891961  -1.67770705  -7.32983962
 C  -2.50936296  -2.72803358  -8.30992390
 N  -1.31910855  -2.46234051  -8.89202534
 O  -3.14153537  -3.75428892  -8.53696573
 H  -4.66485718  -3.69997493  -7.00928946
 H  -4.80110772  -0.78678301  -6.52990492
 H  -2.60159593  -1.92883117  -6.34884473
 H  -2.61603553  -0.69696304  -7.60765668
 H  -0.95302657  -3.12667610  -9.55121034
 H  -0.80879385  -1.62093169  -8.69334462
 N  -5.47757292  -2.32149663  -9.33594027
 C  -6.08184782  -2.09211433  -10.62330517
 C  -7.59918698  -1.93167991  -10.46665680
 O  -8.16657859  -1.86766819  -9.40312714
 C  -5.60924431  -3.14515274  -11.63162490
 C  -5.79302558  -4.61283821  -11.26139002
 C  -7.19665118  -5.19588578  -11.39273478
 N  -8.16885425  -4.73154239  -10.40479116
 C  -8.11451744  -4.97055941  -9.09563498
 N  -7.24775763  -5.86815378  -8.60162776
 N  -9.01627664  -4.37452437  -8.29454388
 O  -8.29481174  -1.82429270  -11.61191499
 H  -7.70989923  -1.89726269  -12.37498301
 H  -4.95245070  -3.16195219  -9.17660599
 H  -5.74808312  -1.11214477  -10.97763580
 H  -6.05209964  -2.94484309  -12.61300559
 H  -4.53720438  -2.95827926  -11.75130093
 H  -5.14855895  -5.19884312  -11.92492059
 H  -5.42954254  -4.79833596  -10.24952067
 H  -7.62034783  -4.94953951  -12.36939720
 H  -7.13517996  -6.29127359  -11.34755882
 H  -8.90723810  -4.11266268  -10.71681206
 H  -6.93948404  -5.75177693  -7.64374521
 H  -6.62602408  -6.33700997  -9.23700288
 H  -8.76423927  -4.37944913  -7.31345054
 H  -9.29789570  -3.45619033  -8.62635838
