80
82
N         -4.32583       10.61714       -7.85010
C         -3.42052        9.68487       -8.58495
C         -2.44908        9.14577       -7.50588
O         -2.86869        8.97373       -6.36211
C         -2.77547       10.40695       -9.77874
C         -3.78290       11.04684      -10.71359
C         -4.73742       10.26586      -11.38132
C         -3.77889       12.43110      -10.91697
C         -5.67250       10.85745      -12.23147
C         -4.70034       13.02495      -11.78504
C         -5.65474       12.24116      -12.43787
H         -4.66364       10.18139       -6.98030
H         -5.16152       10.97766       -8.38808
H         -4.03785        8.84919       -8.93136
H         -2.18119        9.67302      -10.33864
H         -2.08959       11.16831       -9.39145
H         -4.74599        9.18594      -11.24863
H         -3.05281       13.05057      -10.39685
H         -6.40302       10.23924      -12.74501
H         -4.66964       14.09818      -11.95201
H         -6.37135       12.70162      -13.11140
H         -3.76920       11.42810       -7.51167
N         -1.17007        8.91165       -7.86667
C         -0.13826        8.59155       -6.86931
C          0.10547        9.78641       -5.92194
O          0.30174        9.61396       -4.73270
C          1.14940        8.15564       -7.58858
C          2.34340        7.85025       -6.66218
C          2.00724        6.77860       -5.61505
C          3.55192        7.43619       -7.51371
H         -0.88308        9.03249       -8.82805
H         -0.51832        7.79202       -6.23196
H          0.91621        7.26146       -8.18363
H          1.44134        8.94745       -8.29505
H          2.60215        8.77497       -6.12845
H          1.63853        5.86229       -6.09492
H          2.90166        6.51416       -5.04116
H          1.25466        7.13324       -4.90468
H          3.80839        8.20284       -8.25506
H          4.43160        7.27239       -6.88265
H          3.35036        6.50110       -8.05173
N          0.15247       11.02620       -6.53491
C         -0.11416       12.21323       -5.73545
C         -1.63042       12.49972       -5.83219
O         -2.26597       12.11796       -6.83639
C          0.75718       13.40770       -6.14919
C          0.80673       14.47271       -5.04771
N          1.60638       15.53474       -5.30394
O          0.16676       14.37183       -4.00126
H         -0.27582       11.06009       -7.45222
H          0.12325       11.94977       -4.70309
H          1.77246       13.04014       -6.34025
H          0.40018       13.85869       -7.08447
H          1.71484       16.23841       -4.58549
H          2.20200       15.58460       -6.11738
N         -2.20089       13.07612       -4.76965
C         -3.64313       13.01820       -4.52544
C         -4.09502       11.55380       -4.70644
O         -5.10550       11.20957       -5.30147
C         -4.46242       13.98841       -5.38798
C         -5.91644       14.14713       -4.89924
C         -6.92029       14.35686       -6.04098
N         -7.00919       13.20419       -6.93976
C         -6.45599       13.22584       -8.19801
N         -5.84218       14.24598       -8.66893
N         -6.61522       11.96514       -8.87576
O         -3.23133       10.70024       -4.16210
H         -3.41740        9.79715       -4.49151
H         -1.56559       13.41968       -4.05068
H         -3.77665       13.26145       -3.46448
H         -4.43595       13.64493       -6.42402
H         -3.95148       14.95636       -5.37503
H         -6.22557       13.26244       -4.32965
H         -5.99150       14.99529       -4.20760
H         -7.91521       14.54373       -5.61984
H         -6.64496       15.21818       -6.65239
H         -7.01494       12.30354       -6.47545
H         -5.61053       14.12060       -9.65218
H         -6.50854       12.07054       -9.88329
H         -7.52712       11.54995       -8.68714
