21
conf-962
 N   32.21520889  -28.89512079   41.61649677
 C   31.17226875  -29.93332652   41.71865478
 C   31.68087773  -31.37319680   41.63723001
 O   30.92742155  -32.27346797   41.29020747
 C   30.35315252  -29.74063821   43.00347690
 C   29.90019969  -28.33356385   43.10190623
 C   30.54684372  -27.43642766   43.96904006
 C   28.92600914  -27.84737291   42.20980868
 C   30.29000860  -26.09811256   43.93258979
 C   28.61352490  -26.52279707   42.14124515
 C   29.31001950  -25.56480788   42.99336318
 O   29.07305068  -24.35810364   42.93017799
 H   32.77519462  -28.84241776   42.46963435
 H   30.47871995  -29.81271124   40.87959479
 H   29.51295974  -30.43124945   42.97195042
 H   30.96727327  -29.99003955   43.86980586
 H   31.29196752  -27.82303292   44.65958538
 H   28.43805591  -28.55927077   41.54982181
 H   30.79208259  -25.39142454   44.57969837
 H   27.87521381  -26.13493159   41.45273039
 H   32.82499539  -29.01903382   40.81514539
 H   31.74845089  -27.98936213   41.53211403
 N   32.96772870  -31.55773755   42.01829632
 C   33.67614355  -32.82149108   41.83813436
 C   35.20239031  -32.52736358   41.97985991
 O   36.02218659  -33.04814533   41.24303040
 C   33.18191670  -33.94372933   42.76997343
 C   33.20169009  -33.59780702   44.25256106
 C   33.94274248  -35.24709093   42.51301490
 H   33.53834155  -30.73785076   42.07060061
 H   33.50631876  -33.15729776   40.81363174
 H   32.14348390  -34.08825372   42.47321290
 H   32.76303391  -34.41993129   44.82370696
 H   34.22434510  -33.46118454   44.61016739
 H   32.62306883  -32.69691665   44.47509802
 H   34.94809898  -35.19764534   42.93356567
 H   34.02153392  -35.46205371   41.44511890
 H   33.42627257  -36.08277122   42.99250875
 N   35.48235566  -31.72244722   43.02827898
 C   36.69979700  -30.94943322   43.17012753
 C   36.45332852  -29.47023213   42.92719106
 O   37.27244633  -28.60940698   43.11164666
 C   37.36587201  -31.14527087   44.53255549
 C   37.86394609  -32.56178708   44.81641614
 C   39.00571969  -33.02217362   43.92422653
 N   38.48191383  -33.40796656   42.60407593
 C   39.23870600  -33.67037753   41.54097225
 N   40.58972410  -33.55060742   41.60402307
 N   38.68202212  -34.04800931   40.37741600
 O   35.22015683  -29.20606678   42.44455348
 H   35.19145140  -28.25159413   42.30583063
 H   41.05407258  -33.31942457   40.73614565
 H   34.68174753  -31.38878787   43.52091875
 H   37.39568340  -31.25745496   42.38473471
 H   36.66521481  -30.84150177   45.31680246
 H   38.20711040  -30.44875592   44.59113539
 H   37.03719172  -33.27991549   44.73834918
 H   38.20333736  -32.59342652   45.85672689
 H   39.53177322  -33.86913716   44.37868872
 H   39.73500631  -32.21245052   43.81089707
 H   37.57343365  -33.84890866   42.60491597
 H   40.95840561  -33.08622632   42.42116990
 H   39.24925362  -34.57234476   39.73141952
 H   37.68085503  -34.19235116   40.33692502
