21
conf-472
 N  -5.88460300  -86.75699326   129.77246967
 C  -5.19638142  -87.27737349   128.58136419
 C  -4.21647844  -88.37962502   128.98096461
 O  -4.35124023  -89.56330282   128.69737294
 C  -6.16985529  -87.72775409   127.50442138
 C  -7.18069825  -86.64802546   127.12142086
 C  -6.46284806  -85.31589768   126.88471755
 O  -6.19583478  -84.64615958   127.89065063
 O  -6.21698717  -85.03259386   125.69998545
 H  -6.26787091  -85.83802235   129.53549487
 H  -4.59309840  -86.45273880   128.17581401
 H  -6.69411051  -88.61972915   127.85152062
 H  -5.58882797  -88.02902431   126.62952354
 H  -7.90649063  -86.51460865   127.92861173
 H  -7.71924661  -86.93095744   126.21661910
 H  -6.64176942  -87.39095841   130.02946084
 H  -5.26013509  -86.64154520   130.57031805
 N  -3.17715600  -87.93161306   129.74033502
 C  -1.95076188  -88.72287459   129.77797096
 C  -0.78131710  -87.74979423   129.59837860
 O   0.02931765  -87.49037589   130.47197519
 C  -1.87360006  -89.55772437   131.05175759
 C  -0.95473236  -90.73272429   130.86930285
 C  -1.41973679  -91.85255998   130.17752907
 C   0.36403524  -90.73052771   131.32286955
 C  -0.60681973  -92.96108130   129.97555948
 C   1.19153500  -91.83707614   131.12486094
 C   0.70105618  -92.95266198   130.45354099
 O   1.45502156  -94.06968749   130.22709442
 H  -3.07433512  -86.93834081   129.87926467
 H  -1.99470503  -89.40684901   128.92021929
 H  -1.57601684  -88.92309399   131.88492770
 H  -2.88515545  -89.92215857   131.23999713
 H  -2.43353015  -91.83746021   129.78586170
 H   0.74987847  -89.84581663   131.81645509
 H  -0.96558657  -93.83451295   129.44467276
 H   2.21130232  -91.82226280   131.49404279
 H   2.33069678  -93.94044599   130.59977271
 N  -0.79069919  -87.12777514   128.38285363
 C  -0.25633944  -85.78896553   128.22169278
 C  -1.05502590  -84.71471335   128.94934909
 O  -0.85830706  -83.53051416   128.83457433
 C  -0.09161199  -85.44212716   126.73179907
 C  -1.25766868  -85.83993789   125.83406224
 C  -2.63534439  -85.31013663   126.22012413
 C  -2.79770260  -83.80995568   126.03077019
 N  -4.13053541  -83.34108948   126.46198489
 O  -2.01474842  -85.19340425   129.76582727
 H  -2.37219041  -84.40608293   130.20325221
 H  -1.55669507  -87.35791590   127.77565126
 H   0.72364136  -85.77110220   128.70616459
 H   0.09509663  -84.36945839   126.65345047
 H   0.81055544  -85.94932281   126.37773257
 H  -1.31241654  -86.93108370   125.77023487
 H  -1.03526239  -85.50255482   124.81700499
 H  -3.37705435  -85.82178773   125.59853812
 H  -2.85924703  -85.57688355   127.25707552
 H  -2.02946862  -83.28229365   126.59666267
 H  -2.63759868  -83.57211516   124.97382857
 H  -4.29835896  -82.37998169   126.15175678
 H  -4.19002449  -83.34235276   127.48115753
 H  -4.90723215  -83.94716836   126.12323450
