21
conf-621
 N   32.04539233  -31.16148576   44.24671711
 C   31.36336819  -30.44812586   43.15201449
 C   32.28743901  -29.32670948   42.67877576
 O   32.35807870  -28.29205034   43.32603977
 C   30.90978494  -31.41688622   42.06292035
 C   30.09871612  -32.54011049   42.64209496
 C   30.63122241  -33.82164151   42.74954230
 C   28.82062025  -32.31492456   43.14656611
 C   29.90887311  -34.85586939   43.33650122
 C   28.07782663  -33.33929019   43.72641106
 C   28.62879722  -34.61552323   43.82370814
 O   27.96111929  -35.66716383   44.38603488
 H   31.42269501  -31.85659505   44.66076229
 H   30.47731030  -29.94852511   43.55807316
 H   30.32725712  -30.85293968   41.33658749
 H   31.76496442  -31.83775860   41.53130112
 H   31.62866041  -34.02271221   42.37904960
 H   28.40437598  -31.31659053   43.08503034
 H   30.32377259  -35.85141497   43.42033454
 H   27.08234039  -33.13896979   44.10706363
 H   27.09670691  -35.36954349   44.68013916
 H   32.87064646  -31.64452162   43.83045804
 H   32.35525849  -30.51726588   44.97147729
 N   33.00700829  -29.55087570   41.53610906
 C   34.09417497  -28.63010154   41.19048052
 C   35.35297643  -29.03773708   41.95588039
 O   35.93815130  -28.23826656   42.66569160
 C   34.25793486  -28.53064100   39.66345996
 C   34.57559646  -29.85374677   38.98140087
 C   35.28054439  -27.45964408   39.28462849
 H   33.21665776  -30.51313476   41.36913590
 H   33.81014981  -27.65498110   41.57821622
 H   33.26920574  -28.20315956   39.32787533
 H   33.89871809  -30.65009507   39.29988108
 H   34.47945472  -29.74413506   37.89839124
 H   35.59738948  -30.16863426   39.19358035
 H   35.05829108  -26.50608165   39.76929307
 H   35.28884764  -27.30218044   38.20346543
 H   36.28307966  -27.76789434   39.58678763
 N   35.76517278  -30.33735415   41.78788087
 C   36.19290744  -31.11561459   42.94467767
 C   34.89170301  -31.70757221   43.53269362
 O   34.81920327  -31.89740226   44.74302688
 C   37.10546016  -32.26874548   42.56526957
 C   38.36432744  -31.87940701   41.79165041
 C   39.29951490  -30.93481608   42.52394287
 N   38.68911359  -29.60533653   42.64622153
 C   39.17283218  -28.62242648   43.39794344
 N   40.24103298  -28.85437948   44.20033345
 N   38.56489062  -27.42362440   43.36778582
 O   34.02601060  -31.97786722   42.65358501
 H   35.07341860  -30.90728686   41.33198686
 H   36.65389446  -30.46170813   43.67843927
 H   36.53535774  -32.99305665   41.97776146
 H   37.38346555  -32.77220350   43.49736843
 H   38.08341272  -31.43061618   40.83416656
 H   38.91243226  -32.79690584   41.55362971
 H   40.25108592  -30.86177480   41.98436780
 H   39.52637610  -31.33246251   43.51774250
 H   38.06404387  -29.32184932   41.90639266
 H   40.72839002  -28.05493412   44.57502849
 H   40.83394452  -29.63008876   43.94566534
 H   38.78399549  -26.78091816   44.11438275
 H   37.57861605  -27.46373805   43.11114195
