21
conf-684
 N   32.66505542  -30.86283386   44.96074652
 C   31.86602313  -29.71093260   44.47021929
 C   32.74997207  -28.67475851   43.76626988
 O   32.75259720  -27.49623356   44.08266067
 C   30.76505189  -30.21138866   43.53955416
 C   29.93742268  -31.27760165   44.19494305
 C   30.10940062  -32.61717060   43.85962968
 C   29.03694804  -30.96312662   45.21039495
 C   29.39148853  -33.62009196   44.50704602
 C   28.30236516  -31.94924948   45.85955106
 C   28.48270825  -33.28372430   45.50679133
 O   27.74239040  -34.21672687   46.17679687
 H   33.01141053  -31.43481488   44.17463783
 H   31.40649325  -29.19855642   45.31837168
 H   30.15541789  -29.35725214   43.24860509
 H   31.21547278  -30.61040269   42.63029264
 H   30.82752144  -32.88845362   43.09514482
 H   28.91728073  -29.92458841   45.49614640
 H   29.54157805  -34.65755104   44.23055107
 H   27.59767132  -31.70136337   46.64236510
 H   27.95971200  -35.09048638   45.84252126
 H   33.45486922  -30.55808734   45.53441623
 H   32.05523323  -31.46319619   45.52041344
 N   33.50609105  -29.19406628   42.76773379
 C   34.59418123  -28.45783136   42.13917893
 C   35.74281020  -29.47734861   41.83306723
 O   36.90474673  -29.25154142   42.10831597
 C   34.11613588  -27.64489900   40.92547863
 C   33.61418968  -28.47809442   39.75359957
 C   35.19974328  -26.66839687   40.46327638
 H   33.45433992  -30.18710358   42.63765441
 H   34.95906092  -27.75160647   42.88338239
 H   33.27980194  -27.06504109   41.32687214
 H   32.82495314  -29.17582140   40.04807497
 H   33.20035254  -27.81650278   38.98866698
 H   34.43224214  -29.03973281   39.30066068
 H   35.56763130  -26.06861663   41.29865634
 H   34.80020013  -25.98976483   39.70541513
 H   36.04341314  -27.20545838   40.02508318
 N   35.28775903  -30.59641295   41.19948507
 C   35.80533526  -31.92187500   41.47749410
 C   34.73835800  -32.65228584   42.33241702
 O   34.99768492  -33.76978208   42.75123902
 C   36.04126931  -32.74266985   40.21392337
 C   37.06170453  -32.16670098   39.23154501
 C   38.48937006  -32.10638238   39.74426424
 N   38.63035788  -30.98231306   40.68256747
 C   39.71883343  -30.75251478   41.41434166
 N   40.77120570  -31.61170465   41.37856388
 N   39.80111082  -29.67360447   42.21055885
 O   33.65031510  -32.00425984   42.52131246
 H   34.29555790  -30.66994699   41.16829398
 H   36.72792296  -31.85803639   42.05966695
 H   35.08672383  -32.87921538   39.69257612
 H   36.35799455  -33.73965445   40.53811527
 H   36.75846561  -31.16119551   38.91962117
 H   37.04297521  -32.78949734   38.33131352
 H   39.18819731  -31.98580868   38.90804695
 H   38.74658958  -33.04553086   40.24565928
 H   38.06658891  -30.16888633   40.47663555
 H   41.33131413  -31.65767346   42.21904224
 H   40.60223568  -32.50123716   40.93179957
 H   40.71533369  -29.33892440   42.46610702
 H   39.04080220  -29.00446792   42.22122289
