21
conf-302
 N   32.26365255  -31.05136476   41.19934118
 C   32.52321226  -29.61534980   41.00601565
 C   32.46178371  -28.93970203   42.37445005
 O   31.63040586  -29.29696820   43.19417387
 C   33.82842093  -29.40643127   40.23287513
 C   33.79502066  -30.12313279   38.91113751
 C   34.48312838  -31.31893168   38.72705525
 C   33.01950585  -29.63900627   37.86029881
 C   34.40496094  -32.01644874   37.52362878
 C   32.94490436  -30.31226731   36.64596598
 C   33.63861825  -31.50741172   36.47864999
 O   33.52694480  -32.13492248   35.26978980
 H   32.32033130  -31.55052199   40.31008722
 H   31.71392948  -29.18384784   40.40336160
 H   33.98118356  -28.33478876   40.06148287
 H   34.66392061  -29.78205954   40.82422523
 H   35.06807778  -31.72686957   39.54417873
 H   32.46068108  -28.72154956   38.00046995
 H   34.94168933  -32.95052958   37.40371085
 H   32.34730326  -29.93091572   35.82794643
 H   34.04811704  -32.94153249   35.28416549
 H   33.00837566  -31.39548765   41.86858331
 H   31.35082226  -31.19863066   41.63337088
 N   33.35147268  -27.94984178   42.63950748
 C   33.43691383  -27.38793579   43.98644743
 C   33.65097826  -28.48206331   45.04032587
 O   33.07652686  -28.43891814   46.11321815
 C   34.48799662  -26.25938100   44.05771807
 C   35.91399578  -26.71899551   43.77128547
 C   34.40963568  -25.54912396   45.41005068
 H   34.00925369  -27.66804195   41.93534103
 H   32.46014737  -26.95797430   44.22859273
 H   34.18211861  -25.55375308   43.28024859
 H   35.97274514  -27.32832443   42.86502350
 H   36.56623560  -25.85264321   43.63859512
 H   36.30838258  -27.30434936   44.60467937
 H   34.69644791  -26.22904805   46.21298966
 H   33.39379394  -25.19909373   45.61146439
 H   35.08026402  -24.68732870   45.43220079
 N   34.57840766  -29.44666044   44.72105430
 C   34.37209861  -30.77588807   45.25877508
 C   33.78476157  -31.60510639   44.07641180
 O   32.98894481  -32.49856341   44.34993928
 C   35.67992513  -31.39990195   45.73252874
 C   35.54896559  -32.88437275   46.11025531
 C   35.94488330  -33.82405471   44.97654232
 N   35.82777705  -35.24479529   45.35261690
 C   34.66536342  -35.91256933   45.33881587
 N   33.50170984  -35.28278647   45.15991253
 N   34.69838680  -37.26637453   45.52489880
 O   34.23588404  -31.29252232   42.95718226
 H   34.76327990  -29.55556285   43.73705467
 H   33.64899117  -30.74398282   46.07281847
 H   36.01749506  -30.82534068   46.59907981
 H   36.44366230  -31.27254612   44.95862888
 H   34.52774071  -33.10118976   46.41621363
 H   36.18825899  -33.09941205   46.96867311
 H   36.99684305  -33.66675742   44.73110121
 H   35.37731285  -33.61553855   44.06658739
 H   36.65520025  -35.80353667   45.21853034
 H   32.67581443  -35.82143310   44.94871693
 H   33.47178870  -34.31933140   44.85116990
 H   33.83701669  -37.66332097   45.87941620
 H   35.51249611  -37.60792722   46.02342596
