21
conf-964
 N  -6.91188177   20.09038256   11.27450836
 C  -6.15340319   19.85363236   12.53173014
 C  -5.66808259   18.39840760   12.48027764
 O  -4.92795904   18.10399046   11.55503187
 C  -6.96836291   20.31826746   13.72514062
 C  -7.22999465   21.79798715   13.64414740
 C  -8.46899753   22.27828362   13.23042759
 C  -6.21296629   22.70964130   13.91950365
 C  -8.69445265   23.64764836   13.10736254
 C  -6.43633762   24.07870595   13.81445094
 C  -7.68023189   24.55174554   13.40433091
 H  -7.18237654   21.07394282   11.21661416
 H  -5.23951161   20.45492318   12.49073064
 H  -7.92316513   19.78158802   13.73615721
 H  -6.42270415   20.08643228   14.63846910
 H  -9.25762593   21.57415354   12.98288707
 H  -5.23902608   22.33401649   14.21378440
 H  -9.66456878   24.00329563   12.78043291
 H  -5.63434641   24.77160833   14.04261101
 H  -7.85646953   25.61769761   13.31528748
 H  -7.76756571   19.50551890   11.25861949
 H  -6.33554380   19.84818819   10.46323250
 N  -6.13915837   17.42943934   13.32896195
 C  -5.92640661   16.04138884   12.89664463
 C  -6.92970615   15.60850927   11.81378690
 O  -6.72899509   14.62010146   11.12485903
 C  -6.07941545   15.23988876   14.19532868
 C  -7.08156683   16.06724439   14.99645171
 C  -6.71574849   17.51835059   14.67237463
 H  -4.93801170   15.91965308   12.45256021
 H  -6.40250944   14.21477720   14.01363122
 H  -5.11153120   15.21696123   14.69948263
 H  -8.09753369   15.86374215   14.65089565
 H  -7.04975235   15.86186074   16.06624061
 H  -5.98859409   17.91278263   15.38844330
 H  -7.60098346   18.14711500   14.71771477
 N  -8.03944626   16.37167794   11.70630503
 C  -8.94046395   16.23802122   10.60192369
 C  -9.61944391   17.62528789   10.44251881
 O  -9.31034995   18.48069483   11.30707794
 C  -9.95925510   15.12536256   10.83046638
 C  -10.82823008   14.79702582   9.61554041
 C  -10.01952371   14.21800427   8.43658422
 C  -10.35126400   14.89215195   7.10660047
 N  -9.87695633   16.29745758   7.04813701
 O  -10.39764223   17.77633032   9.49365323
 H  -8.11379727   17.26022321   12.17090816
 H  -8.37172062   16.03234260   9.69105054
 H  -10.58904036   15.39573048   11.68568177
 H  -9.39159638   14.24284720   11.13355728
 H  -11.59902709   14.07841825   9.91448916
 H  -11.36617242   15.69240273   9.30252705
 H  -10.21459924   13.14480062   8.34506820
 H  -8.94363567   14.30495680   8.62551423
 H  -9.91316929   14.32722410   6.27874615
 H  -11.43615596   14.87026605   6.95608022
 H  -10.23015685   16.77842250   6.21748041
 H  -8.85748062   16.32029694   7.01782566
 H  -10.17442018   16.84012460   7.86617047
