21
conf-815
 N  -5.58663262   18.52963924   11.42613273
 C  -5.81119574   18.61183494   12.88543500
 C  -6.67548617   17.38759930   13.24089384
 O  -6.48170729   16.33846754   12.65099404
 C  -6.35373448   19.99045448   13.28146658
 C  -5.62737884   21.09113706   12.56040624
 C  -6.20759277   21.71893631   11.46378806
 C  -4.34348573   21.46246312   12.94603663
 C  -5.52357501   22.71047056   10.76642478
 C  -3.65250895   22.45483795   12.25755266
 C  -4.24291677   23.08268283   11.16385381
 H  -6.52486755   18.71518136   10.98644387
 H  -4.84654882   18.47703376   13.38975319
 H  -7.41446550   20.06656533   13.05968109
 H  -6.23232326   20.11931861   14.35472558
 H  -7.19892248   21.41435284   11.14324405
 H  -3.88149497   20.96212355   13.79110925
 H  -5.99083756   23.18986203   9.91419923
 H  -2.65392255   22.73397597   12.57320516
 H  -3.70753561   23.85586642   10.62446151
 H  -5.28159883   17.59078021   11.16637759
 H  -4.90299858   19.21866484   11.11569080
 N  -7.67444413   17.47150557   14.17704143
 C  -8.58279239   16.31116911   14.28224439
 C  -9.26853574   15.97481216   12.95500787
 O  -9.44580652   14.82050122   12.60648665
 C  -9.55058325   16.72871699   15.39546643
 C  -8.66625334   17.58830878   16.29180198
 C  -7.83700736   18.39823423   15.29539259
 H  -8.01625590   15.42059044   14.57099425
 H  -10.36746395   17.32710762   14.98704892
 H  -9.97937286   15.86363240   15.90054594
 H  -9.22965156   18.22492518   16.97409684
 H  -8.00252968   16.95535913   16.88378526
 H  -6.87759435   18.70513794   15.71408809
 H  -8.38615125   19.29518477   14.98874800
 N  -9.70761218   17.06525821   12.23833593
 C  -9.75121817   16.94371738   10.80147711
 C  -8.53464088   17.76778010   10.25395046
 O  -8.19997108   18.71366214   10.98746597
 C  -11.04942813   17.49053011   10.21914782
 C  -11.21027333   17.22026052   8.71753357
 C  -11.42861480   15.72617131   8.39647503
 C  -10.48370645   15.19934240   7.31927570
 N  -9.08542621   15.09382387   7.80264729
 O  -8.05768984   17.45698970   9.16505526
 H  -9.26678153   17.93920750   12.47020906
 H  -9.62754075   15.89729280   10.53256873
 H  -11.10788361   18.56516054   10.42413080
 H  -11.87503795   17.03026015   10.76869155
 H  -12.05361355   17.80175869   8.33262502
 H  -10.32867992   17.59534447   8.19010968
 H  -12.46210938   15.56171180   8.07666588
 H  -11.30056691   15.12063197   9.30253595
 H  -10.82232106   14.21908487   6.97105845
 H  -10.51701883   15.86639511   6.45078004
 H  -9.02967299   14.40139543   8.54980251
 H  -8.74365806   15.98138046   8.18563927
 H  -8.44536804   14.81340713   7.05614635
