21
conf-112
 N  -95.63527596  -16.04874579   4.15127164
 C  -96.83914281  -15.27940462   3.93854363
 C  -96.84317167  -13.79963192   4.33881782
 O  -97.57765408  -13.01376516   3.75385526
 C  -98.04661037  -15.95664243   4.62051875
 C  -98.43350085  -17.24373266   3.95146672
 C  -98.17430118  -18.51346470   4.38404921
 C  -99.13898825  -17.37753287   2.70129724
 C  -99.25494933  -18.75002217   2.42861951
 C  -99.66785897  -16.44495728   1.79934349
 N  -98.65877834  -19.42548461   3.46933190
 C  -99.87824245  -19.23452491   1.27533489
 C  -100.29363993  -16.91495219   0.65747304
 C  -100.39414078  -18.29418691   0.39708054
 H  -97.04121215  -15.27784541   2.86314684
 H  -97.78515034  -16.14626074   5.66501353
 H  -98.89473870  -15.26270836   4.60261357
 H  -97.66121660  -18.84007355   5.27571788
 H  -98.59187691  -20.42121631   3.55423101
 H  -99.59266190  -15.37732007   1.99243787
 H  -99.95338634  -20.29882381   1.08248582
 H  -100.71125528  -16.21159904  -0.05296885
 H  -100.88715481  -18.62763473  -0.50817188
 H  -94.88334403  -15.70135092   3.57387501
 H  -95.32294342  -16.06166070   5.11416300
 N  -96.09916009  -13.46788172   5.41894644
 C  -96.09747136  -12.15043738   6.02980427
 C  -95.40851431  -11.13598877   5.10857916
 O  -96.00953035  -10.22307499   4.56318379
 C  -97.48707588  -11.64684154   6.49220868
 C  -97.28468794  -10.46114584   7.44406312
 C  -98.29111506  -12.75691964   7.16717418
 C  -98.55898255  -9.69183022   7.77275665
 H  -95.46368406  -14.14549467   5.80752223
 H  -95.49856402  -12.27519920   6.92899174
 H  -98.01705260  -11.30012231   5.60210704
 H  -96.82653649  -10.84148354   8.36400179
 H  -96.55533742  -9.77464881   6.99526071
 H  -99.21967312  -12.36232733   7.58164521
 H  -98.56136604  -13.54686037   6.46472720
 H  -97.72055075  -13.20051160   7.98914278
 H  -99.02566236  -9.29946924   6.86423329
 H  -98.33523931  -8.84479134   8.42359852
 H  -99.29664794  -10.31474846   8.28052818
 N  -94.06414879  -11.28453789   4.86219747
 C  -93.05370031  -12.08033153   5.55345771
 C  -93.27066484  -13.55436008   5.22766589
 O  -93.39410400  -14.43334502   6.04750266
 C  -92.86060493  -11.77177424   7.03711715
 C  -91.66214536  -12.46573530   7.69689198
 C  -90.41318696  -12.48026634   6.82834158
 N  -90.50318695  -13.55384276   5.82624574
 C  -89.89420363  -13.54315583   4.64429298
 N  -89.11244832  -12.48998211   4.29486999
 N  -90.09377972  -14.58059038   3.79878644
 O  -93.25717372  -13.81520072   3.91177117
 H  -93.47297658  -13.01465082   3.41738021
 H  -93.72187476  -10.49187801   4.33782045
 H  -92.12059801  -11.81026783   5.04877633
 H  -92.73819625  -10.68815871   7.11319968
 H  -93.76261670  -12.01938643   7.60611190
 H  -91.91871863  -13.49556662   7.95252908
 H  -91.44375341  -11.95066741   8.63738541
 H  -90.30753945  -11.50977359   6.33428392
 H  -89.51698949  -12.63404608   7.43610988
 H  -90.88826852  -14.43553842   6.13697589
 H  -88.49059656  -12.61532442   3.51070836
 H  -88.71024587  -11.96720256   5.06104580
 H  -90.97165108  -15.07760620   3.90434315
 H  -89.79286285  -14.46502092   2.84299718
