21
conf-652
 N  -94.96606409  -16.03653450   4.09848241
 C  -94.33975985  -15.09328224   3.16864775
 C  -93.52129782  -14.11416985   4.01133078
 O  -92.31180169  -14.26096642   4.10925544
 C  -95.43842684  -14.43206689   2.33756998
 C  -96.20979184  -15.44610745   1.55217265
 C  -97.30125082  -16.13618842   2.00574793
 C  -95.92855472  -15.94632984   0.23211415
 C  -96.88155727  -16.93999390  -0.04986505
 C  -94.95219254  -15.63834035  -0.72518434
 N  -97.71325146  -17.03062734   1.04301648
 C  -96.89639910  -17.64608995  -1.25431152
 C  -94.95814538  -16.33221086  -1.92238427
 C  -95.91946535  -17.32601331  -2.18407844
 H  -93.61726710  -15.58058641   2.49709689
 H  -96.13382296  -13.92550507   3.00556493
 H  -95.00000668  -13.68959074   1.67019278
 H  -97.81537924  -16.06681252   2.95202607
 H  -98.46375445  -17.68713426   1.14354887
 H  -94.20392238  -14.87437229  -0.53977498
 H  -97.64192939  -18.40938934  -1.44844810
 H  -94.21082504  -16.10752160  -2.67403362
 H  -95.89534894  -17.85060650  -3.13168833
 H  -95.46778662  -16.73106583   3.56109715
 H  -94.25600051  -16.51976552   4.63899844
 N  -94.23632004  -13.14436204   4.64255485
 C  -93.75219028  -12.33017704   5.74497012
 C  -93.67423147  -13.18640932   7.01860648
 O  -92.60702185  -13.59257793   7.45856230
 C  -92.43691621  -11.56850980   5.48737315
 C  -92.23998729  -10.53792713   6.60676209
 C  -92.44839956  -10.89367129   4.11808002
 C  -90.87455507  -9.85995959   6.60897693
 H  -95.24219394  -13.14370078   4.53681324
 H  -94.52451504  -11.57623353   5.87814726
 H  -91.62310589  -12.29512103   5.53551626
 H  -93.03261416  -9.78635986   6.51818892
 H  -92.39283748  -11.04039202   7.57118349
 H  -93.29112314  -10.20103232   4.03379022
 H  -91.53056868  -10.32369666   3.96512662
 H  -92.51602235  -11.62491428   3.31509929
 H  -90.70326035  -9.27967572   5.70100267
 H  -90.06950609  -10.59639204   6.69088900
 H  -90.78955673  -9.17976869   7.45826775
 N  -94.82102048  -13.55634279   7.66762658
 C  -96.23466452  -13.21071739   7.53742750
 C  -96.83521885  -13.78180763   6.26046542
 O  -96.93078087  -13.13724469   5.24510566
 C  -96.52496805  -11.72212242   7.70474469
 C  -98.00655113  -11.34062672   7.71000093
 C  -98.83711885  -12.18720846   8.66105262
 N  -99.14849692  -13.48551747   8.03524283
 C  -99.40357265  -14.59857037   8.71905612
 N  -99.52985148  -14.60381664   10.06537433
 N  -99.49426920  -15.78343492   8.06285471
 O  -97.23255040  -15.04901305   6.29718012
 H  -97.15119785  -15.44986600   7.17480580
 H  -94.58245395  -14.12170691   8.46548389
 H  -96.69997045  -13.74570088   8.36991905
 H  -96.06614706  -11.41702660   8.64865165
 H  -96.01889223  -11.15631828   6.91747885
 H  -98.42117608  -11.42105441   6.70264134
 H  -98.08756623  -10.28898914   8.00238193
 H  -98.26661833  -12.34234279   9.58330971
 H  -99.76925396  -11.68657468   8.93653474
 H  -99.47502933  -13.45655926   7.07938807
 H  -99.31465518  -15.45877439   10.55687990
 H  -99.33955028  -13.74731501   10.56293725
 H  -99.51087690  -15.75746028   7.04943074
 H  -100.06426486  -16.50240646   8.48548059
