21
conf-962
 N  -96.54941921  -11.49036896   4.96438137
 C  -97.14624078  -12.76529774   5.32372776
 C  -96.25131562  -13.51979429   6.31499046
 O  -96.09808294  -13.05382936   7.43469785
 C  -97.54803867  -13.54646954   4.07320103
 C  -98.74002383  -12.94531529   3.38544345
 C  -98.74733516  -12.20357717   2.23881341
 C  -100.10813242  -13.02196596   3.83060961
 C  -100.88714099  -12.29091460   2.91930417
 C  -100.72360667  -13.63964963   4.92563305
 N  -100.03590270  -11.80068903   1.95497870
 C  -102.26977248  -12.14555406   3.06381920
 C  -102.09301146  -13.50962566   5.07462378
 C  -102.85707130  -12.76667273   4.15512338
 H  -98.05691154  -12.54418774   5.88810710
 H  -96.70239164  -13.57926689   3.38797959
 H  -97.78088675  -14.57937809   4.34738235
 H  -97.92599126  -11.91313635   1.60229640
 H  -100.30700976  -11.24202101   1.16900004
 H  -100.14098212  -14.21296925   5.64228374
 H  -102.85191194  -11.57307558   2.35033306
 H  -102.58837616  -13.98201463   5.91429079
 H  -103.92688917  -12.68063861   4.30274034
 H  -96.34622915  -10.98152563   5.81612708
 H  -95.66615650  -11.64236741   4.49042735
 N  -95.67699269  -14.67049990   5.89055839
 C  -94.79867749  -15.49082244   6.70615340
 C  -93.49123185  -14.74517103   7.01436078
 O  -93.19159057  -14.37122285   8.13834611
 C  -95.45306630  -16.05414424   7.99165404
 C  -94.54304951  -17.14030859   8.57958557
 C  -96.84147602  -16.62466402   7.71159060
 C  -94.91386869  -17.57027914   9.99429135
 H  -95.72496704  -14.91261997   4.91952728
 H  -94.57192713  -16.35024201   6.07771626
 H  -95.52678215  -15.22521025   8.69917711
 H  -94.57109633  -18.00235067   7.90380312
 H  -93.50840088  -16.77808280   8.57646751
 H  -97.25999625  -17.07603873   8.61248764
 H  -97.54128148  -15.85764949   7.37580104
 H  -96.78808269  -17.40424163   6.94574004
 H  -95.91470141  -18.00123716   10.04520363
 H  -94.88410409  -16.72027691   10.68255725
 H  -94.21045318  -18.31951549   10.36193905
 N  -92.63518597  -14.46245720   5.97574296
 C  -92.59181591  -14.95608518   4.60292936
 C  -93.75004144  -14.34742648   3.82352581
 O  -94.58278599  -14.97859988   3.22097433
 C  -92.42912693  -16.46591323   4.44198423
 C  -92.19105578  -16.94522123   3.00433386
 C  -91.23960633  -16.05765342   2.21615914
 N  -91.94925516  -14.86820459   1.72003474
 C  -91.37651316  -13.69697653   1.45590155
 N  -90.04101587  -13.54042704   1.63901504
 N  -92.15470189  -12.67363020   1.03405871
 O  -93.74988019  -13.00393778   3.83293127
 H  -93.19926708  -12.68121196   4.55621854
 H  -91.77460385  -14.07750436   6.33760737
 H  -91.69114284  -14.49540635   4.18540604
 H  -91.57793545  -16.75165643   5.06554698
 H  -93.29707238  -16.99608088   4.84560454
 H  -93.13919901  -17.00021235   2.46594164
 H  -91.78959021  -17.96241672   3.04424137
 H  -90.40756878  -15.75929694   2.86088103
 H  -90.81342479  -16.59980250   1.36707061
 H  -92.88209147  -15.01367578   1.35849699
 H  -89.60800527  -12.73003420   1.22327064
 H  -89.48598980  -14.38310116   1.57752334
 H  -93.12139493  -12.69539250   1.34058306
 H  -91.74256542  -11.75310381   1.01690917
