21
conf-981
 N  -9.86989048   19.92548255   12.75610635
 C  -8.78115047   20.20289459   11.80450821
 C  -8.98230816   19.27648869   10.60372128
 O  -9.92079651   18.50672285   10.55096208
 C  -7.43289574   20.02706216   12.50709088
 C  -7.32005981   20.96463082   13.67578500
 C  -7.46220563   20.48855371   14.97491148
 C  -7.14128721   22.33117881   13.47437423
 C  -7.41084480   21.36127363   16.05891630
 C  -7.07324496   23.20754204   14.55344139
 C  -7.21081169   22.72261219   15.85131905
 H  -9.77691024   20.51500578   13.58240046
 H  -8.82836381   21.24055803   11.45444843
 H  -7.35527280   19.00229954   12.86695841
 H  -6.60221011   20.18473338   11.81683213
 H  -7.63563640   19.42867087   15.13286603
 H  -7.05920379   22.70395590   12.45804261
 H  -7.52628397   20.97446950   17.06466303
 H  -6.92414818   24.26622056   14.37540097
 H  -7.16428085   23.40149100   16.69527995
 H  -9.82477815   18.94280635   13.04625399
 H  -10.77751491   20.06368759   12.31320919
 N  -8.03454315   19.28368816   9.61891788
 C  -8.09588829   18.21461517   8.61204779
 C  -7.93952504   16.82477634   9.23907284
 O  -8.46050847   15.84104652   8.73937537
 C  -6.96144909   18.58140530   7.63238322
 C  -6.10167328   19.58819210   8.39842286
 C  -7.13721938   20.35454261   9.21806312
 H  -9.06946080   18.20339212   8.11068131
 H  -6.40438732   17.70594118   7.29815867
 H  -7.40249738   19.05365423   6.75242908
 H  -5.41462457   19.06355291   9.06649964
 H  -5.51907436   20.23597435   7.74491656
 H  -7.65720541   21.08412287   8.58345220
 H  -6.72364878   20.89633732   10.06811167
 N  -7.16265131   16.77564293   10.36862150
 C  -7.51486586   15.82675601   11.42462426
 C  -8.76774185   16.33156559   12.11986324
 O  -8.78697269   17.08337621   13.07669877
 C  -6.34366966   15.65917981   12.37079460
 C  -6.53823618   14.64276097   13.49698302
 C  -6.77115848   13.18921707   13.06331672
 C  -8.21686997   12.86032876   12.64743501
 N  -8.36894135   12.74701614   11.19046700
 O  -9.86435646   15.88364012   11.50558337
 H  -10.58250191   16.45336844   11.80799447
 H  -6.86413460   17.67562362   10.70458502
 H  -7.74612148   14.88438035   10.93150233
 H  -6.09334175   16.63513229   12.80124751
 H  -5.48838038   15.36340352   11.75814361
 H  -5.64007575   14.67907943   14.12248786
 H  -7.36097843   14.96381541   14.13994394
 H  -6.50758352   12.53942682   13.90566496
 H  -6.09038598   12.93343663   12.24375079
 H  -8.54280102   11.93799904   13.14112755
 H  -8.88244970   13.64746840   13.00805534
 H  -8.17767039   11.80530748   10.86997022
 H  -9.32084508   12.96329662   10.91752117
