21
conf-667
 N  -8.40475561   19.54941485   14.94864537
 C  -8.27533813   20.11377122   13.59140346
 C  -9.26098114   19.39929170   12.66508011
 O  -9.89030525   18.42399243   13.02825430
 C  -6.84207393   19.98894295   13.08760527
 C  -5.86543804   20.66560364   14.01183524
 C  -4.97342952   19.91402083   14.77038190
 C  -5.86779041   22.04879011   14.15897284
 C  -4.09789282   20.53035787   15.66019941
 C  -4.98753358   22.67558177   15.03520129
 C  -4.10187461   21.91553481   15.79305011
 H  -8.21626418   18.54686632   14.91669687
 H  -8.52785788   21.17680481   13.63647299
 H  -6.59681995   18.92854515   13.01180349
 H  -6.77201499   20.41118096   12.08200849
 H  -4.96729763   18.83405082   14.66345800
 H  -6.56640493   22.63808529   13.57472673
 H  -3.41304227   19.92732968   16.24503226
 H  -5.00432398   23.75550931   15.12870419
 H  -3.41847387   22.39987449   16.48136021
 H  -9.35750081   19.66560793   15.29347986
 H  -7.74412280   19.99945149   15.58330442
 N  -9.35642884   19.86633301   11.38228999
 C  -10.36664740   19.23925563   10.50756777
 C  -10.08352967   17.76194078   10.23262400
 O  -10.98641383   16.95267090   10.09915624
 C  -10.32466751   20.12865759   9.25729792
 C  -10.00351448   21.50364168   9.83771638
 C  -8.95135130   21.18447945   10.90039006
 H  -11.35438685   19.27970934   10.97831322
 H  -9.51768016   19.80716234   8.59537063
 H  -11.26228701   20.09121534   8.70297016
 H  -9.63699930   22.21105589   9.09434119
 H  -10.88757853   21.93033675   10.31433198
 H  -8.92533044   21.91836718   11.70563627
 H  -7.95560702   21.15084773   10.44644259
 N  -8.76490987   17.44904975   10.07601089
 C  -8.35653600   16.06688857   10.16321707
 C  -7.92629444   15.75213850   11.57489947
 O  -7.37696065   16.53944793   12.31089912
 C  -7.21553513   15.78746382   9.17985666
 C  -6.70025594   14.35256326   9.17386811
 C  -7.76288594   13.33231180   8.78809057
 C  -7.26171753   11.90488558   8.89246469
 N  -6.92889004   11.59401809   10.28684371
 O  -8.17875988   14.47956757   11.93239113
 H  -7.84763250   14.37897442   12.83244678
 H  -8.10780992   18.13201847   10.41028170
 H  -9.23444522   15.46702505   9.92159867
 H  -6.39541494   16.47595190   9.41048354
 H  -7.57893003   16.05554760   8.18386567
 H  -5.86963868   14.28660352   8.46186567
 H  -6.28139531   14.09782146   10.15058308
 H  -8.09832434   13.52607148   7.76282134
 H  -8.64453405   13.44222322   9.42814171
 H  -8.01023174   11.22198569   8.46679108
 H  -6.35188716   11.79504334   8.29505999
 H  -7.76789251   11.61372192   10.85721360
 H  -6.55809038   10.65524074   10.36149824
