21
conf-622
 N  -9.02531490   14.90016054   13.50424758
 C  -7.79514273   15.60676757   13.09314566
 C  -7.81662976   17.01922494   13.67388904
 O  -8.85501464   17.55967253   14.00785245
 C  -7.69028817   15.64388457   11.57122797
 C  -7.66616430   14.25941618   10.97484155
 C  -8.70376566   13.83668932   10.14916995
 C  -6.63233428   13.37143483   11.25719861
 C  -8.71268139   12.55233960   9.61288260
 C  -6.62546659   12.08990422   10.71528524
 C  -7.66972608   11.67516218   9.89446065
 H  -9.83465965   15.44366053   13.19934391
 H  -6.93025350   15.07082218   13.48965185
 H  -8.54905184   16.18738639   11.17863175
 H  -6.79263529   16.19167716   11.27298793
 H  -9.51063488   14.52750986   9.92629691
 H  -5.82381723   13.69314315   11.90449433
 H  -9.53149919   12.24166307   8.97410621
 H  -5.80706748   11.41700064   10.94497935
 H  -7.66941784   10.67502094   9.47601731
 H  -9.07857678   14.81992174   14.51976182
 H  -9.05868806   13.97337449   13.07840526
 N  -6.62192350   17.67221196   13.76074522
 C  -6.60214038   18.97899538   14.43256096
 C  -7.32476094   20.06477256   13.63197927
 O  -7.84387271   21.01493648   14.19294029
 C  -5.09741388   19.25167966   14.61923677
 C  -4.41677843   18.37678131   13.56550114
 C  -5.29504910   17.12708611   13.52718964
 H  -7.12140681   18.93620562   15.39510180
 H  -4.85698411   20.31046703   14.52548731
 H  -4.81103426   18.92708442   15.62151216
 H  -4.43336756   18.87328459   12.59297402
 H  -3.38051412   18.14771623   13.80891716
 H  -5.01262077   16.42358228   14.31741683
 H  -5.24095929   16.59026229   12.57645628
 N  -7.28118122   19.92098170   12.27566434
 C  -8.27659545   20.59257350   11.46489685
 C  -9.38432766   19.60555891   11.12513918
 O  -9.18873335   18.43091609   10.89283785
 C  -7.64383340   21.13637208   10.18304125
 C  -8.60165764   21.89269411   9.26831948
 C  -9.14416233   23.16813492   9.89517939
 C  -10.00175878   23.97970608   8.94340106
 N  -11.27454670   23.29987555   8.67744596
 O  -10.58915255   20.17127892   11.07142967
 H  -11.18904457   19.45828694   10.82319013
 H  -7.00346302   19.01234329   11.94216339
 H  -8.69490814   21.39825667   12.06621519
 H  -7.19391350   20.29891161   9.64019055
 H  -6.82103548   21.79085410   10.48237175
 H  -8.06386891   22.15012087   8.34825373
 H  -9.42681838   21.24121445   8.97000421
 H  -8.30383155   23.79081116   10.22451696
 H  -9.72857122   22.92888005   10.78759622
 H  -10.23118185   24.94459587   9.40386162
 H  -9.42324743   24.18587910   8.03030654
 H  -11.88868958   23.91588255   8.15970455
 H  -11.11730116   22.50168798   8.07473261
