21
conf-669
 N  -6.86225153   18.50399897   14.59181508
 C  -7.38841753   19.53386681   13.67818743
 C  -8.76190567   19.06527567   13.18976260
 O  -9.29288936   18.05910543   13.62702538
 C  -6.38785084   19.79234687   12.55158950
 C  -5.04729343   20.17552557   13.11227112
 C  -4.00572697   19.25453433   13.14881759
 C  -4.85224489   21.43757497   13.66466430
 C  -2.78088982   19.59470347   13.71775310
 C  -3.62746517   21.78995417   14.22206475
 C  -2.58691800   20.86510203   14.25132953
 H  -6.78018923   17.61213436   14.09324014
 H  -7.51465148   20.47911059   14.22037924
 H  -6.27822554   18.88729288   11.95368708
 H  -6.75511431   20.58081480   11.89335385
 H  -4.16878589   18.25813176   12.74996086
 H  -5.67795675   22.14187628   13.65594180
 H  -1.97965838   18.86540078   13.74206201
 H  -3.49303366   22.78096358   14.64003908
 H  -1.63159847   21.13206697   14.68892247
 H  -7.50001761   18.35744485   15.37296622
 H  -5.93986702   18.77376703   14.93138540
 N  -9.35764932   19.78415694   12.19162175
 C  -10.58139564   19.22077161   11.59305053
 C  -10.32983147   17.82706025   11.00742927
 O  -11.17445951   16.94642334   11.04319242
 C  -10.97478527   20.29641024   10.57342893
 C  -10.50929646   21.58222999   11.25556268
 C  -9.14910867   21.18097520   11.82691591
 H  -11.35830333   19.10294222   12.35543863
 H  -10.42591972   20.14747238   9.64128360
 H  -12.04167361   20.27657621   10.35285826
 H  -10.44015985   22.43153504   10.57596093
 H  -11.18463164   21.84431119   12.07137478
 H  -8.83016184   21.77182058   12.68666725
 H  -8.38499116   21.27821446   11.04504247
 N  -9.09619050   17.65510034   10.43285139
 C  -8.54960913   16.31150928   10.44524034
 C  -7.96448438   16.00057316   11.82034456
 O  -6.92178706   16.47076448   12.23344316
 C  -7.54034061   16.09380100   9.32504001
 C  -7.53505190   14.62265085   8.89857941
 C  -8.81685526   14.24583105   8.11960954
 C  -9.59551282   13.08137227   8.71749615
 N  -10.20466364   13.44202904   10.00281734
 O  -8.73592780   15.16718509   12.53844532
 H  -8.32444769   15.14562922   13.41490032
 H  -8.44270290   18.39713809   10.61134229
 H  -9.39401817   15.64218324   10.29780580
 H  -6.55164799   16.43699865   9.63706181
 H  -7.83826645   16.72151009   8.48154874
 H  -6.65427570   14.41244231   8.28668422
 H  -7.44099326   13.99281365   9.79055793
 H  -8.56120768   14.00901648   7.08145007
 H  -9.48414250   15.11612016   8.07048177
 H  -10.34312022   12.73545441   7.99127115
 H  -8.91704987   12.24216577   8.89816030
 H  -10.93996496   14.13372597   9.88249301
 H  -10.61944071   12.63485621   10.45094214
