21
conf-497
 N  -9.91712579   19.50557351   14.31108022
 C  -8.57408467   18.89436726   14.31101961
 C  -7.71687815   19.58918314   13.25144304
 O  -8.18935871   20.39318504   12.47099440
 C  -8.66317599   17.39264945   14.06571673
 C  -9.52764829   16.71101589   15.09254930
 C  -10.76595498   16.18521447   14.73746992
 C  -9.12609781   16.63570284   16.42231042
 C  -11.59026539   15.59423994   15.69111717
 C  -9.93629686   16.03485667   17.38050536
 C  -11.17528061   15.51602361   17.01704757
 H  -10.33228383   19.40895975   13.38373957
 H  -8.12584164   19.05110397   15.29617571
 H  -9.08325786   17.23259857   13.07147724
 H  -7.65800449   16.96358876   14.06626274
 H  -11.08805942   16.24245251   13.70271603
 H  -8.16445588   17.05040112   16.70517187
 H  -12.55301123   15.19386158   15.39532231
 H  -9.59928141   15.98325994   18.40959796
 H  -11.81231352   15.05275702   17.76202150
 H  -9.85431353   20.50381582   14.51017358
 H  -10.51425107   19.04714143   15.00028081
 N  -6.40161707   19.21820468   13.17614288
 C  -5.54764311   19.94954520   12.21970288
 C  -5.96395374   19.73777854   10.76383790
 O  -5.84910152   20.62318545   9.93242534
 C  -4.14486771   19.42364619   12.55339859
 C  -4.23205121   19.17786759   14.05760688
 C  -5.61970100   18.55578858   14.21723629
 H  -5.60951824   21.02729779   12.40282543
 H  -3.96404110   18.48069106   12.03298790
 H  -3.36852536   20.13228882   12.26541235
 H  -3.44309472   18.52818730   14.43552490
 H  -4.19017125   20.12390187   14.59984690
 H  -6.04646122   18.71622200   15.20704312
 H  -5.56947576   17.47561201   14.04578232
 N  -6.39181482   18.47771052   10.46533364
 C  -7.11969047   18.25526363   9.23840032
 C  -8.60192256   18.31926000   9.51005085
 O  -9.12435161   17.98280912   10.54752187
 C  -6.73644319   16.90382334   8.62839807
 C  -7.39130639   16.58712293   7.28811410
 C  -7.00895923   17.56906511   6.19173141
 C  -7.72096240   17.30439375   4.87030464
 N  -9.17369689   17.46667234   4.89966233
 O  -9.31152072   18.76089798   8.45304277
 H  -10.23580255   18.74630395   8.72785817
 H  -6.64143419   17.90011200   11.24874614
 H  -6.85306900   19.07336963   8.56886355
 H  -6.97793952   16.12237800   9.35695491
 H  -5.64882371   16.90041366   8.51436997
 H  -7.08977340   15.57654408   6.98710799
 H  -8.47758096   16.55906279   7.39709130
 H  -5.92603825   17.52660021   6.02806883
 H  -7.23275150   18.59281947   6.51157280
 H  -7.32730182   17.98113189   4.10817105
 H  -7.51061044   16.28973059   4.52356974
 H  -9.59811667   16.73573328   5.45875608
 H  -9.41678077   18.34424346   5.34991130
