21
conf-614
 N  -10.00366719   16.41694472   11.70693240
 C  -9.51038800   16.95165385   12.99093137
 C  -9.81797531   18.45466110   12.98406723
 O  -10.48304026   18.96477143   12.10142986
 C  -8.02165419   16.63095278   13.13960134
 C  -7.75014324   15.18268831   12.85376640
 C  -7.17705703   14.80337951   11.64529152
 C  -8.12044586   14.19771261   13.76221758
 C  -6.95861126   13.46018835   11.35245389
 C  -7.90199152   12.85256820   13.48150853
 C  -7.31985933   12.48037664   12.27242498
 H  -9.39593913   16.77513799   10.95677577
 H  -10.03315951   16.47954547   13.83091605
 H  -7.45168989   17.22954797   12.42922090
 H  -7.68830741   16.88570217   14.14625142
 H  -6.91370416   15.56658357   10.91945330
 H  -8.58743738   14.49324268   14.69591048
 H  -6.50843859   13.17977482   10.40727857
 H  -8.19194816   12.09855839   14.20409850
 H  -7.14931816   11.43325379   12.04896435
 H  -10.94984542   16.74812316   11.52134980
 H  -9.96892241   15.39917168   11.70425381
 N  -9.27626367   19.24016237   13.96070841
 C  -9.30430887   20.70068139   13.72168109
 C  -8.66917182   20.99399702   12.35686145
 O  -9.16417544   21.74520806   11.52458360
 C  -8.56303343   21.24792134   14.94992222
 C  -8.86056565   20.20475633   16.02637017
 C  -8.74754701   18.88244993   15.26635687
 H  -10.33647443   21.05828522   13.67322036
 H  -7.48993728   21.28710577   14.75152398
 H  -8.89425602   22.25135891   15.21486855
 H  -8.17630818   20.25779790   16.87328143
 H  -9.87958448   20.32361547   16.39731021
 H  -9.31272363   18.06019821   15.70691545
 H  -7.69290835   18.58207797   15.21032172
 N  -7.51959156   20.29666259   12.10876424
 C  -7.14089585   20.01820509   10.72567778
 C  -8.22555648   19.15784472   10.05997594
 O  -8.16796410   17.94765945   10.02411273
 C  -5.77796601   19.35184915   10.69104715
 C  -5.27222673   19.01771331   9.29349427
 C  -5.10573328   20.23672382   8.40358573
 C  -4.62862426   19.89264043   6.99677072
 N  -5.53048722   19.05300450   6.20915854
 O  -9.24306372   19.82259634   9.51602180
 H  -9.29802817   20.72319719   9.89532695
 H  -7.33997129   19.54728209   12.75987798
 H  -7.10571448   20.98408356   10.21683830
 H  -5.82159565   18.43572342   11.28985288
 H  -5.07567043   20.02061933   11.19470620
 H  -4.30737397   18.50431685   9.38604164
 H  -5.95178891   18.30637698   8.82053232
 H  -4.38755000   20.92865110   8.85934394
 H  -6.05388413   20.78110899   8.32373509
 H  -4.46113749   20.81503842   6.43579276
 H  -3.66625353   19.37782465   7.04389362
 H  -5.58074990   18.12249371   6.60751265
 H  -6.47532703   19.42496880   6.23894487
