21
conf-746
 N  -5.64135458   17.98838916   8.96849275
 C  -6.85524794   18.76311025   9.28834268
 C  -6.67378695   19.42072206   10.65754151
 O  -5.72681974   19.16012000   11.37394782
 C  -8.08897116   17.86662017   9.24592248
 C  -8.30407435   17.29938213   7.86924253
 C  -7.91769199   15.99815624   7.55947715
 C  -8.83588954   18.09636573   6.85691021
 C  -8.06276780   15.49987938   6.26657802
 C  -8.99821219   17.60112530   5.56636824
 C  -8.60737953   16.29942179   5.26690081
 H  -5.47193010   17.30174773   9.70467192
 H  -6.97810256   19.54002344   8.52769544
 H  -7.94526922   17.06288165   9.96987696
 H  -8.96782748   18.43229173   9.56272203
 H  -7.48495458   15.37343163   8.33419297
 H  -9.12885904   19.11609671   7.08924674
 H  -7.75039156   14.48604158   6.04612010
 H  -9.42137139   18.23877543   4.79870926
 H  -8.72584794   15.91074267   4.26192288
 H  -4.82446120   18.59927910   8.93860558
 H  -5.75205348   17.50815099   8.07512568
 N  -7.66238671   20.27371044   11.06903429
 C  -7.45630334   20.97922507   12.34862853
 C  -7.40121320   20.03744938   13.55121003
 O  -6.68677518   20.27038112   14.51248888
 C  -8.63345947   21.96296662   12.37988744
 C  -8.81483451   22.30892545   10.90450803
 C  -8.62506793   20.95974403   10.20992293
 H  -6.50274119   21.51729332   12.33633923
 H  -9.52844049   21.46430458   12.75782261
 H  -8.42365008   22.82503866   13.01285145
 H  -9.78365938   22.75494356   10.68148452
 H  -8.03453703   22.99904914   10.57912283
 H  -8.25250004   21.06547310   9.19046405
 H  -9.57360973   20.41506505   10.16475130
 N  -8.26076701   18.98081495   13.49265064
 C  -8.07307360   17.87028519   14.39528454
 C  -7.23794691   16.80824547   13.72596012
 O  -7.24476446   16.57469386   12.53998948
 C  -9.42799097   17.30162796   14.82674447
 C  -9.36219872   16.16515262   15.84125407
 C  -8.73706648   16.58292052   17.16300643
 C  -8.59722537   15.43324564   18.15379886
 N  -7.69420910   14.35974082   17.74171006
 O  -6.49385745   16.09958951   14.59956622
 H  -6.01828584   15.44485717   14.07511628
 H  -8.63885485   18.76826703   12.58635348
 H  -7.52217445   18.25878647   15.25232422
 H  -9.95713696   16.97079619   13.92652773
 H  -10.00591858   18.13122728   15.24332035
 H  -10.38216328   15.80548700   16.02304071
 H  -8.81275873   15.31871647   15.42368922
 H  -9.34442177   17.37389950   17.61771459
 H  -7.74634499   17.01668713   16.98760568
 H  -8.23478671   15.82324306   19.10790055
 H  -9.57316286   14.98365133   18.35236134
 H  -8.08841652   13.84916394   16.96010003
 H  -6.81715252   14.75085663   17.41038774
