21
conf-34
 N   31.59581620  -31.45624453   41.98368255
 C   32.24188920  -32.54260202   42.70246736
 C   33.57541538  -32.93835092   42.03740038
 O   33.77917850  -32.71109803   40.85323532
 C   32.37471449  -32.18579443   44.18758772
 C   31.04848530  -31.93701422   44.85105137
 C   30.69362180  -30.66664544   45.29819473
 C   30.13656650  -32.97240846   45.03627334
 C   29.46355059  -30.42813474   45.90849985
 C   28.90884098  -32.75880767   45.65428640
 C   28.56986703  -31.47963310   46.08639695
 O   27.34849987  -31.32119275   46.67960047
 H   31.59008861  -33.42199913   42.63125957
 H   32.89110236  -32.98950076   44.72553766
 H   32.99633706  -31.28660090   44.25648348
 H   31.38501722  -29.84277645   45.17174903
 H   30.39136184  -33.96716613   44.68850360
 H   29.21005770  -29.42883446   46.24582247
 H   28.20485179  -33.56917893   45.79808848
 H   27.23604965  -30.40100147   46.93060029
 H   32.18393406  -30.63512940   41.97899573
 H   31.50042856  -31.72833732   41.01342962
 N   34.49831748  -33.56451902   42.81374024
 C   35.81108344  -33.89429662   42.26512781
 C   36.47716876  -32.65061823   41.66133479
 O   37.09038890  -32.71791558   40.60949177
 C   36.69476541  -34.63427161   43.28868693
 C   36.97667685  -33.84291315   44.56047112
 C   38.00174876  -35.08057262   42.63007673
 H   34.27960556  -33.79015315   43.76884642
 H   35.66077206  -34.56105511   41.40992807
 H   36.12148322  -35.52865841   43.55094446
 H   37.61562936  -32.98255217   44.35125338
 H   36.05776126  -33.48140377   45.03016670
 H   37.49590715  -34.47416829   45.28499307
 H   38.57763537  -35.71293886   43.30926607
 H   38.61109373  -34.21565972   42.36700817
 H   37.80830546  -35.64678799   41.71526537
 N   36.38435624  -31.49843908   42.39746669
 C   36.31167190  -30.25782274   41.65054192
 C   34.95713873  -29.67155818   41.91937379
 O   34.12784049  -29.42357321   41.04669718
 C   37.42652731  -29.26377607   41.92111960
 C   37.26078317  -28.01918743   41.02777636
 C   36.70539735  -26.80743825   41.76275401
 N   36.57517939  -25.62929545   40.88252486
 C   35.55844011  -25.45520384   40.02998639
 N   34.67045667  -26.43316277   39.79713024
 N   35.44797787  -24.25983735   39.38165709
 O   34.68678637  -29.42598215   43.22709624
 H   33.77540033  -29.13246594   43.16032311
 H   35.75860042  -31.53705053   43.18122408
 H   36.29678751  -30.50308177   40.58373968
 H   38.37174129  -29.76447082   41.70303128
 H   37.43258094  -28.99405716   42.97656013
 H   36.59130674  -28.25731132   40.19988644
 H   38.22171054  -27.74654448   40.58829217
 H   37.40021710  -26.51014548   42.55093295
 H   35.75665512  -27.03122052   42.24782557
 H   37.01661146  -24.78546596   41.21217594
 H   33.80776271  -26.20846243   39.32649897
 H   34.62064464  -27.21771614   40.42569373
 H   34.93060246  -24.29510481   38.51214604
 H   36.31510547  -23.74094902   39.29451633
