21
conf-772
 N   34.50603117  -28.76678865   44.62728939
 C   35.61359090  -29.00876387   43.68669099
 C   35.67979448  -30.51259868   43.40568866
 O   35.50672197  -31.31214105   44.31040954
 C   35.43503408  -28.12041754   42.45529164
 C   35.36149753  -26.66745991   42.83223046
 C   34.13260273  -26.03679615   43.01566071
 C   36.52099825  -25.92513809   43.05399772
 C   34.05612295  -24.70390748   43.41330890
 C   36.46221461  -24.58911781   43.43840616
 C   35.22543860  -23.97758344   43.62117282
 O   35.22231148  -22.66610491   44.00475842
 H   36.58159703  -28.74590632   44.14146019
 H   36.27079460  -28.27253534   41.76346694
 H   34.51035229  -28.41011866   41.95195559
 H   33.21936114  -26.60578378   42.87675618
 H   37.48816496  -26.39587548   42.92256355
 H   33.08777971  -24.23883362   43.55962675
 H   37.36360185  -24.01341386   43.60471193
 H   34.31420174  -22.36714696   44.09635523
 H   34.61226569  -29.40509232   45.40990597
 H   34.59194292  -27.82551514   44.98632598
 N   35.93143392  -30.91378231   42.13106831
 C   35.89143417  -32.33251359   41.78458866
 C   34.48318432  -32.94779333   42.10211547
 O   34.37988336  -34.09730449   42.50981965
 C   36.34289288  -32.56800468   40.32902581
 C   35.46379459  -31.89769115   39.27837097
 C   36.49518329  -34.05954583   40.01726163
 H   36.23597169  -30.24306935   41.44624637
 H   36.59082576  -32.85578851   42.44102993
 H   37.33931578  -32.11648729   40.29048235
 H   35.34505855  -30.82562621   39.45543912
 H   35.90393419  -32.02435665   38.28659597
 H   34.47126936  -32.35303904   39.25871657
 H   35.51808831  -34.51513418   39.84958352
 H   36.98589278  -34.59452418   40.83332427
 H   37.08598462  -34.19547555   39.10831148
 N   33.44498707  -32.13285305   41.78966218
 C   32.17789792  -32.17008043   42.52702773
 C   32.17326270  -31.00840184   43.51243808
 O   31.78317236  -31.07798203   44.64858257
 C   30.97897231  -32.08054038   41.59155928
 C   30.84768861  -33.24631617   40.60885437
 C   30.58393066  -34.59826554   41.25099171
 N   31.82283490  -35.14243332   41.83294256
 C   31.86648544  -36.21744279   42.61772784
 N   30.72366422  -36.85837323   42.97665317
 N   33.03598086  -36.69171156   43.08072286
 O   32.64347582  -29.87533953   42.95413891
 H   32.97836074  -29.28882622   43.68709803
 H   33.73066586  -31.19194540   41.60253696
 H   32.13098165  -33.09076648   43.11175634
 H   31.03051650  -31.14126253   41.03597655
 H   30.07418820  -32.02543244   42.20742520
 H   31.74472315  -33.31670445   39.98371457
 H   30.01711592  -33.01891656   39.93269909
 H   30.18338433  -35.30006860   40.51024196
 H   29.82462043  -34.48864328   42.03271712
 H   32.67824933  -34.92878850   41.33970996
 H   30.74646233  -37.34184099   43.86415045
 H   29.85943117  -36.37645780   42.77683666
 H   33.07697771  -37.66054969   43.35223417
 H   33.89962474  -36.26096723   42.77708600
