21
conf-474
 N   12.71731562   15.57123825   11.32908962
 C   12.20064960   14.90704182   12.54882924
 C   13.40404897   14.53897940   13.40398203
 O   14.12853762   13.60323639   13.09554538
 C   11.40130086   13.64169735   12.23791257
 C   10.30176613   13.85311624   11.20553474
 C   9.55074658   15.11568228   11.51829209
 O   9.52578325   16.08348863   10.79751495
 O   8.93220737   15.15875624   12.72380837
 H   9.07799986   14.32705821   13.19156393
 H   13.34107201   16.35529918   11.54825721
 H   11.57665415   15.61787102   13.07946540
 H   10.95899136   13.28167773   13.17085707
 H   12.09517236   12.86906431   11.90519670
 H   10.72067145   13.94045437   10.20124525
 H   9.60200709   13.01712139   11.19528294
 H   13.25365775   14.88289074   10.79289759
 H   11.96173331   15.92547722   10.74663103
 N   13.69026505   15.32801985   14.48258324
 C   13.09523436   16.59880349   14.85284557
 C   13.33634934   17.66379662   13.76746174
 O   14.38576967   17.71331645   13.08532602
 C   13.78852614   17.03548657   16.15569444
 C   13.28659477   18.29648321   16.84985365
 C   11.82059196   18.19466187   17.25126201
 C   14.14326738   18.58024800   18.08239598
 H   14.64734185   15.21127713   14.78532504
 H   12.02328251   16.46513215   15.01179387
 H   14.83988948   17.16973290   15.88201130
 H   13.72721421   16.19254225   16.84450918
 H   13.42239666   19.13728777   16.16013839
 H   11.70405148   17.45311323   18.04584555
 H   11.45996312   19.15635933   17.62968265
 H   11.16547356   17.89278462   16.42845253
 H   13.80676501   19.48454128   18.59441686
 H   14.07563079   17.74901102   18.78718958
 H   15.19394828   18.71689615   17.81854541
 N   12.35755778   18.63318086   13.69514301
 C   12.69638231   19.82230066   12.92864541
 C   12.05463597   21.05736944   13.52300216
 O   12.03357589   22.11979969   12.96375760
 C   12.48619717   19.67787871   11.42151834
 C   11.14296345   19.11145703   10.96854172
 C   9.92093622   19.61096061   11.74365897
 N   9.56399376   18.64687078   12.78938408
 C   8.59564990   18.99845379   13.73961156
 N   8.25149362   20.17009706   14.11666433
 N   7.97733547   17.88449880   14.26933225
 O   11.53475614   20.89566847   14.74411593
 H   11.65013093   19.97065949   15.00570647
 H   11.37849045   18.37425820   13.73899492
 H   13.77342594   19.97924326   13.07722319
 H   13.28887272   19.00441326   11.09186380
 H   12.67255720   20.66138553   10.98548668
 H   11.00700168   19.34944441   9.90839251
 H   11.16731735   18.01915039   11.03511991
 H   9.07191900   19.75784119   11.06833287
 H   10.12045657   20.57268400   12.20670821
 H   9.32211770   17.75526462   12.37453931
 H   8.76653460   20.88423226   13.61465406
 H   7.44522048   18.10026102   15.09423071
 H   8.49187140   17.02048357   14.28368908
