21
conf-797
 N   9.05142280   16.39398679   12.73528639
 C   10.00528405   16.74631706   11.65844769
 C   9.41986265   17.98755550   10.99338300
 O   8.42501093   17.88984357   10.28937524
 C   10.18141391   15.63465042   10.62193690
 C   10.31004237   14.21255336   11.18144817
 C   11.23568542   14.14238087   12.35773462
 O   10.87096765   14.40552467   13.49223711
 O   12.48136362   13.77942506   12.06382289
 H   12.98965153   13.78258716   12.91007248
 H   8.14637761   16.15679364   12.33009273
 H   10.96053096   16.95985938   12.12959740
 H   11.07264103   15.87374292   10.03625288
 H   9.33084950   15.66855962   9.93539647
 H   9.32776620   13.86017617   11.50782200
 H   10.66364364   13.53935484   10.40065214
 H   9.42038376   15.60389260   13.26956869
 H   8.93561574   17.17602355   13.38999923
 N   9.94243319   19.20774259   11.29721215
 C   11.12175336   19.53513270   12.05723962
 C   10.99681939   19.17140599   13.55099353
 O   9.90784385   19.07573309   14.13274023
 C   11.38924342   21.03899625   11.93742366
 C   11.41513696   21.59554147   10.51329186
 C   11.79368626   23.07281319   10.55276171
 C   12.36576115   20.81620403   9.61139751
 H   9.32807409   19.96750844   11.05618909
 H   11.97007665   18.97764141   11.64108714
 H   12.34410543   21.27070289   12.41659122
 H   10.61192683   21.53949951   12.52039869
 H   10.40377337   21.51746596   10.09482993
 H   11.11352341   23.64290277   11.19069454
 H   12.80592898   23.19272277   10.94661691
 H   11.76631608   23.51624712   9.55442994
 H   13.37978353   20.82887157   10.02446090
 H   12.05625995   19.77551520   9.48999124
 H   12.40829782   21.26754250   8.61658886
 N   12.23686929   18.95887630   14.12602505
 C   12.57478175   18.96493336   15.55411641
 C   13.85445755   18.15767035   15.80289594
 O   14.38394175   18.12431034   16.88283364
 C   11.46831973   18.59221893   16.54727884
 C   10.87495594   17.18291610   16.51193367
 C   11.82050982   16.04593687   16.88945643
 N   12.52671209   15.57398499   15.71593430
 C   13.58089742   14.69754004   15.83608027
 N   14.08716057   14.18968058   16.89406143
 N   14.12324013   14.36375065   14.58164703
 O   14.37259947   17.53579968   14.73091510
 H   13.69567316   17.50727315   14.04092352
 H   12.98463512   19.32331188   13.55451606
 H   12.85270801   19.99422800   15.81920499
 H   10.66159583   19.30839620   16.39585970
 H   11.88895221   18.77621621   17.53901711
 H   10.03882715   17.17549872   17.21997695
 H   10.43815367   17.00102176   15.52107279
 H   11.25865022   15.22455306   17.35270315
 H   12.54974782   16.38347292   17.62288968
 H   11.92990193   15.38890800   14.91921854
 H   13.56261432   14.47870513   17.71475094
 H   14.93320781   13.77328630   14.74618721
 H   14.37578033   15.20855280   14.07702512
