21
conf-841
 N   9.35577004   19.47011406   14.37205913
 C   10.77930206   19.85487231   14.51848071
 C   11.02666679   19.95219643   16.02122199
 O   10.51120203   20.85476767   16.66771371
 C   11.13759914   21.19877404   13.87573861
 C   10.61864723   21.41577269   12.45520512
 C   10.68654507   20.16190206   11.62376087
 O   9.68527981   19.60877718   11.18483442
 O   11.93124589   19.64043651   11.44687557
 H   11.68474482   18.81511240   10.99754184
 H   8.77539103   20.17267943   14.83330069
 H   11.39600871   19.07371140   14.08278304
 H   12.22704697   21.26932414   13.87407518
 H   10.76780083   21.99859804   14.52131231
 H   9.56720172   21.71192974   12.46147599
 H   11.19123222   22.19274469   11.94944473
 H   9.06397953   19.39416568   13.39816597
 H   9.19060974   18.56147158   14.81393717
 N   11.75021315   18.98074715   16.64396816
 C   12.37384925   17.79634642   16.09115503
 C   11.35389544   16.84923322   15.44524121
 O   10.20290866   16.71794389   15.87743479
 C   13.08130911   17.08556351   17.25199459
 C   13.94360630   15.86516197   16.93649027
 C   15.06790380   16.18313098   15.95824398
 C   14.51895884   15.30879441   18.23775330
 H   11.65951703   19.01677502   17.64721800
 H   13.10709612   18.10549386   15.34137129
 H   12.28921509   16.79799281   17.94902739
 H   13.70090994   17.83387492   17.75326651
 H   13.30534831   15.08905708   16.50202866
 H   15.70131847   16.98099678   16.35784671
 H   15.69613293   15.30388166   15.79689584
 H   14.70277475   16.50379806   14.97981450
 H   15.17368104   16.04684514   18.70614329
 H   13.72852130   15.05657146   18.94783407
 H   15.10429878   14.40524888   18.05350161
 N   11.88022227   16.14213603   14.40559657
 C   11.20796872   15.08567095   13.67074733
 C   12.09798887   14.65364525   12.51556154
 O   11.96721382   13.61320439   11.92161596
 C   9.84632378   15.50343709   13.07564241
 C   9.98433604   16.62372980   12.03585680
 C   10.02514653   16.14872060   10.57096402
 N   10.75539420   17.04244939   9.69485710
 C   12.03328424   16.85340148   9.23811949
 N   12.72418392   15.76557745   9.24415690
 N   12.58404947   17.98532637   8.67951606
 O   12.96916749   15.61352787   12.15713019
 H   13.28422284   15.45959282   11.24540228
 H   12.78338329   16.40764898   14.05486964
 H   11.04669773   14.22217490   14.32347741
 H   9.21826135   15.85206571   13.89546806
 H   9.37147464   14.62196839   12.64693281
 H   9.14708141   17.31393216   12.16063711
 H   10.87879038   17.19419422   12.27099585
 H   9.00180393   16.07140608   10.19697780
 H   10.46010784   15.15721859   10.49923242
 H   10.27674314   17.87474847   9.38438307
 H   12.16097384   14.95531980   9.50270212
 H   13.56473692   17.88355586   8.47851499
 H   12.29231426   18.90114653   8.98040134
