21
conf-549
 N   8.63037660   15.55210456   14.87957140
 C   9.66466571   15.62552894   13.83475645
 C   9.00868745   15.80345722   12.47152890
 O   7.81502627   15.63405955   12.31008718
 C   10.56843223   14.39381739   13.84207309
 C   11.32298180   14.23588885   15.16100705
 C   11.85539839   15.58091215   15.57034946
 O   11.32029128   16.29913941   16.37800164
 O   12.95272072   16.01545906   14.90274871
 H   13.26228326   15.35367407   14.27005476
 H   7.91322255   16.26113299   14.71980355
 H   10.27431602   16.50854216   14.02588004
 H   11.28356203   14.46935069   13.02189925
 H   9.96301857   13.50598809   13.64375148
 H   10.65585588   13.87149738   15.94445613
 H   12.13840532   13.51782441   15.06416781
 H   8.17002691   14.64381996   14.84587626
 H   9.04044738   15.70219212   15.79995858
 N   9.84739341   16.10145241   11.42067381
 C   11.11870366   16.79583131   11.55227884
 C   10.85844819   18.30214946   11.64974051
 O   10.07688544   18.85789815   10.89629983
 C   11.99069051   16.51249098   10.32497625
 C   12.40813616   15.04794017   10.17404799
 C   12.90434323   14.78811814   8.75356958
 C   13.48613407   14.67295550   11.18192050
 H   9.32295744   16.37338203   10.59424047
 H   11.61761915   16.46563829   12.45888739
 H   12.88986168   17.13433764   10.35079502
 H   11.40840078   16.82281504   9.45508205
 H   11.52587858   14.42548759   10.34792489
 H   13.77022398   15.41909314   8.53355757
 H   13.20860384   13.74606529   8.62555058
 H   12.13095357   15.00578178   8.01354956
 H   14.42063303   15.18395807   10.93541184
 H   13.21956798   14.96282528   12.20290780
 H   13.67681188   13.59754197   11.17669581
 N   11.62399932   18.99578889   12.54474836
 C   11.42014925   20.42932380   12.66491305
 C   12.73368902   21.14761891   12.95180651
 O   12.78631096   22.26706924   13.39721055
 C   10.28791805   20.79818435   13.62813338
 C   10.31623622   20.15621977   15.01441497
 C   11.60963948   20.38352195   15.78666236
 N   12.61695250   19.39739199   15.40785128
 C   13.94870718   19.64599841   15.76424335
 N   14.47038926   20.74558912   16.17133606
 N   14.72593677   18.51303019   15.67449237
 O   13.84568395   20.49071689   12.59603992
 H   13.60097244   19.63955888   12.20360736
 H   12.02073996   18.53674898   13.35346501
 H   11.12695533   20.78295515   11.67167259
 H   9.35739394   20.52127002   13.12404868
 H   10.29345544   21.88708163   13.72148861
 H   9.48778766   20.57552693   15.59261725
 H   10.12774936   19.07729103   14.94179433
 H   11.42616610   20.33143667   16.86637831
 H   11.98390494   21.38300888   15.58195112
 H   12.35832760   18.46577358   15.72072962
 H   13.78131982   21.48806606   16.23419718
 H   15.71125985   18.70390226   15.72036647
 H   14.43868449   17.78296693   15.04281307
