21
conf-156
 N   11.17791352   17.23179494   9.45058571
 C   11.38032337   16.63006037   10.78391646
 C   12.73083417   15.91717762   10.75689018
 O   13.27832916   15.66985093   9.69456747
 C   10.26764206   15.64770199   11.17159258
 C   8.84028555   16.09181839   10.87682887
 C   8.58233306   17.47263419   11.45285601
 O   8.96277338   18.47998748   10.94610435
 O   7.86705111   17.50554027   12.61558191
 H   7.69786027   16.60200130   12.91126358
 H   10.39875805   17.88453804   9.45156649
 H   11.41631613   17.43221713   11.51930029
 H   10.36091256   15.43573710   12.24135866
 H   10.44062304   14.69950114   10.65554907
 H   8.67971153   16.12420029   9.79524561
 H   8.13002412   15.37525882   11.29154726
 H   12.01516337   17.73752125   9.16598364
 H   11.02133646   16.50125374   8.76173126
 N   13.28264752   15.49351756   11.93391957
 C   13.02394921   16.02500675   13.25355092
 C   13.51081982   17.48218137   13.36805460
 O   13.94499238   18.11143512   12.42023174
 C   13.69799622   15.12065457   14.28463613
 C   13.31270772   13.64691963   14.18277616
 C   14.12725714   12.83739815   15.18650781
 C   11.82320811   13.43389034   14.41782790
 H   14.23018884   15.17517685   11.78752784
 H   11.94297841   16.02808417   13.43145054
 H   13.45729383   15.45497156   15.29673641
 H   14.77940797   15.21316022   14.15156312
 H   13.56199051   13.30249220   13.17561298
 H   13.89593404   13.15634613   16.20600910
 H   13.90058008   11.77094082   15.11020401
 H   15.20069203   12.96386580   15.02827485
 H   11.20216005   13.97853828   13.70335724
 H   11.56397238   12.37524517   14.33552882
 H   11.54691937   13.76840043   15.42250702
 N   13.33241609   18.02460061   14.61755349
 C   13.88213915   19.33720125   14.95214612
 C   13.81841054   19.59704529   16.45061789
 O   14.59910862   20.30046962   17.02873860
 C   13.20610970   20.50155313   14.21653250
 C   11.71142691   20.69756093   14.44509384
 C   10.81736523   19.60042210   13.88244366
 N   9.41270371   19.95497742   13.97901683
 C   8.68174929   19.67608326   15.11766285
 N   9.12177331   19.56107373   16.31763504
 N   7.31483419   19.62644512   14.86346705
 O   12.76936984   19.04270924   17.10091857
 H   12.27307134   18.50016542   16.47529976
 H   13.31452316   17.35408215   15.36692516
 H   14.94008827   19.35813806   14.67664703
 H   13.39807816   20.39058225   13.15050924
 H   13.73217929   21.40593576   14.54050123
 H   11.48223809   20.84205037   15.50350160
 H   11.42510415   21.63157901   13.95541614
 H   10.96847584   18.65433027   14.39539323
 H   11.05000261   19.44879181   12.82831181
 H   8.89297481   19.84294142   13.12052827
 H   10.13255970   19.66323653   16.33072745
 H   6.81971030   19.38747826   15.71156341
 H   7.07137790   19.02075515   14.08549552
