21
conf-883
 N   10.10654148   17.21353975   10.79327829
 C   10.96328921   16.05233250   11.12336163
 C   12.19253556   16.18402156   10.23539486
 O   12.11729472   15.93998387   9.03974236
 C   10.27699197   14.71117839   10.86057721
 C   8.85174981   14.60523750   11.41545327
 C   8.79320009   15.17943781   12.79438571
 O   8.49975783   16.34144590   13.01357843
 O   9.16220229   14.33237371   13.75748196
 H   9.16173811   14.84032796   14.60193663
 H   9.77654665   17.12747864   9.83167143
 H   11.22802080   16.12266839   12.17344686
 H   10.89712320   13.93122354   11.30714307
 H   10.26575433   14.53399881   9.78278902
 H   8.16115834   15.16194909   10.77777454
 H   8.53300739   13.56297866   11.43499303
 H   9.31118296   17.25771038   11.42916906
 H   10.62238048   18.09505105   10.88742850
 N   13.33819711   16.69132403   10.77373989
 C   13.62267142   17.08744041   12.13528105
 C   12.78860356   18.30708449   12.57172385
 O   12.41846146   19.17180114   11.75210437
 C   15.11340770   17.46021727   12.17743188
 C   15.75155060   17.75436395   13.53136528
 C   15.64557134   16.57821310   14.49222723
 C   17.21586130   18.13514413   13.32348480
 H   13.97482006   17.03989565   10.07336435
 H   13.42490753   16.24009850   12.79339715
 H   15.20308435   18.34062308   11.53319480
 H   15.65923275   16.64437103   11.69817908
 H   15.25197744   18.62186545   13.97896180
 H   16.12545468   15.69443028   14.06094114
 H   16.14737410   16.80841430   15.43461298
 H   14.61276812   16.31477611   14.73121658
 H   17.76671268   17.29834422   12.88909134
 H   17.31200486   18.99141150   12.65292263
 H   17.68947044   18.39801624   14.27161111
 N   12.57534448   18.34599559   13.91951693
 C   12.35602104   19.53702553   14.73122335
 C   12.03784032   19.13951805   16.16623636
 O   11.59254336   19.89263111   17.00059323
 C   11.36917382   20.54424333   14.14043814
 C   9.96940077   20.04152353   13.78989494
 C   9.18389685   19.44079619   14.94864564
 N   9.63074066   18.08116181   15.16724127
 C   9.28700200   17.36560463   16.28905845
 N   8.63080225   17.74862717   17.31865182
 N   9.76597525   16.04930631   16.21059334
 O   12.35830524   17.86287101   16.43047814
 H   12.14906955   17.73281872   17.36588626
 H   12.88001729   17.54894479   14.45066993
 H   13.30808657   20.08722225   14.82432775
 H   11.83495026   20.92088686   13.22936732
 H   11.29941475   21.37273683   14.84729945
 H   9.40902417   20.88749651   13.38076523
 H   10.06191602   19.30784824   12.97587308
 H   8.10908812   19.46067364   14.72720674
 H   9.33632581   20.02251198   15.85516951
 H   9.61385745   17.52616548   14.32504489
 H   8.31285738   18.70689378   17.18902360
 H   9.65394918   15.60053231   17.11288834
 H   10.71827528   16.02764645   15.87509458
