21
conf-234
 N   14.04934732   18.77370776   13.41182129
 C   13.95789614   17.29580204   13.48804257
 C   14.36257204   16.91856984   14.90985201
 O   15.52588081   17.03273157   15.26789582
 C   14.90113778   16.65632326   12.45755026
 C   14.23721838   16.15422827   11.18291648
 C   13.54154638   17.24094922   10.32158918
 O   13.53055867   18.40547323   10.75923949
 O   13.08913930   16.85102439   9.24043198
 H   13.89516226   19.04174438   12.43663400
 H   12.92057746   17.01537233   13.31619039
 H   15.43425365   15.82054653   12.91726859
 H   15.66569100   17.39609417   12.21383436
 H   14.98146229   15.68488770   10.53277552
 H   13.49024690   15.38515931   11.39984457
 H   13.36595501   19.21727950   14.03065020
 H   14.98700097   19.06240218   13.70304572
 N   13.38916428   16.51592564   15.77927055
 C   11.96043019   16.48705016   15.57946710
 C   11.34909321   17.89659081   15.43833872
 O   11.90321400   18.92564454   15.83565155
 C   11.30099235   15.77068498   16.75526472
 C   11.86184031   14.38038560   17.05922870
 C   11.03068421   13.72758296   18.15936678
 C   11.91290789   13.50085857   15.81566065
 H   13.70016910   16.55326297   16.73779356
 H   11.74430007   15.93042803   14.65881775
 H   10.22901916   15.68417484   16.55915577
 H   11.41347757   16.41190469   17.63212495
 H   12.88588932   14.50311242   17.43133441
 H   10.98935021   14.35424924   19.05387012
 H   10.00665899   13.56493129   17.81313339
 H   11.44668511   12.75933131   18.44807513
 H   12.63085969   13.87148750   15.08181048
 H   12.20543034   12.48100079   16.07788704
 H   10.92759597   13.45434339   15.34025109
 N   10.12097186   17.88672178   14.83899741
 C   9.26452150   19.06301171   14.76520039
 C   7.95794681   18.66766393   14.09661542
 O   7.88460967   17.80906801   13.25259160
 C   9.85102405   20.24431776   13.97556669
 C   9.91397585   20.04171560   12.46826734
 C   10.72189984   18.82582647   12.05523419
 N   10.91641244   18.76698368   10.61001656
 C   10.07872437   18.11328448   9.80510116
 N   8.80174645   17.92943372   10.19745853
 N   10.52563244   17.77247381   8.58334887
 O   6.87546866   19.39490009   14.42648372
 H   7.10074997   20.03721898   15.10879681
 H   9.70490798   17.00297106   14.60650882
 H   9.09539531   19.41573831   15.78625878
 H   10.85057572   20.44889702   14.36361131
 H   9.22940596   21.11939742   14.19648382
 H   8.92155790   19.96269312   12.02590329
 H   10.36985777   20.92917215   12.02534594
 H   10.24955148   17.91389767   12.40493685
 H   11.69696420   18.88040474   12.52208656
 H   11.90002343   18.82811029   10.31965151
 H   8.56309536   18.01280904   11.17632193
 H   8.21546640   17.30155835   9.66866704
 H   9.91128500   17.21479900   8.00718689
 H   11.51298579   17.47656286   8.59863080
