21
conf-684
 N   9.24713608   16.50100643   14.42277301
 C   9.89608649   15.78660763   13.30230871
 C   9.07019420   16.11929935   12.06830898
 O   7.95772262   15.63317843   11.92754574
 C   9.93839843   14.27658247   13.53547683
 C   10.37074364   13.85119869   14.94264710
 C   11.59093720   14.63672353   15.43929158
 O   11.34120850   15.75704382   15.93096402
 O   12.70451766   14.11242656   15.31412150
 H   9.18575006   17.50881643   14.23513839
 H   10.90763852   16.17095200   13.20966458
 H   10.61421273   13.84041158   12.79426896
 H   8.94358693   13.87190524   13.33279828
 H   9.54676977   14.01946110   15.64263918
 H   10.61956981   12.79000576   14.95284380
 H   8.30498973   16.13478937   14.56346209
 H   9.83614420   16.35298788   15.25641448
 N   9.54426048   17.05582472   11.19847316
 C   10.82099598   17.72620225   11.18820365
 C   11.00888455   18.67447846   12.39156264
 O   10.05286756   19.19383872   12.98929004
 C   10.94280437   18.54428409   9.89874407
 C   10.63261457   17.78948536   8.60522042
 C   10.89533753   18.70115784   7.41073600
 C   11.43580754   16.49881219   8.49048619
 H   8.82411696   17.44748754   10.61399822
 H   11.61187527   16.96658331   11.21816006
 H   11.95534481   18.95076058   9.82714208
 H   10.26552847   19.39529731   10.00949595
 H   9.56635106   17.53132679   8.60559397
 H   11.95465616   18.96551281   7.36376495
 H   10.62847623   18.21121047   6.47118491
 H   10.31916823   19.62727519   7.48068504
 H   11.24300012   16.01000229   7.53181557
 H   12.50865265   16.71118084   8.54468891
 H   11.18509659   15.78788300   9.28107490
 N   12.34433321   18.85511625   12.69750713
 C   12.95312005   19.90863284   13.51889293
 C   14.29543596   19.43109020   14.09231303
 O   14.97861300   20.13336339   14.80595784
 C   12.06760458   20.56147613   14.58456511
 C   11.58413776   19.70988700   15.75887741
 C   12.67229606   19.17912159   16.68859602
 N   13.14394517   17.86707298   16.19988297
 C   14.27223192   17.28861849   16.64301216
 N   15.26095091   18.09968501   17.09066848
 N   14.38447780   15.96058906   16.65213452
 O   14.70697869   18.21183609   13.72292939
 H   13.94755059   17.67280542   13.46897368
 H   12.95641625   18.53640096   11.96312297
 H   13.22766702   20.72961115   12.83991345
 H   11.19769269   20.96224487   14.06561192
 H   12.63678246   21.41136707   14.96798663
 H   10.90984540   20.33799926   16.35256823
 H   10.97132861   18.88722743   15.37029110
 H   12.28139213   19.07032299   17.70438389
 H   13.49472959   19.89018393   16.74592673
 H   12.39151336   17.19579202   16.05253104
 H   15.29376476   19.00349851   16.62835518
 H   16.17035999   17.68239313   17.21877921
 H   15.28018392   15.55441547   16.86568837
 H   13.73819430   15.34812469   16.14287307
