21
conf-472
 N   12.95765776   16.85292695   10.77428971
 C   12.88540955   15.71856201   11.72155616
 C   14.31226156   15.44451280   12.16802921
 O   15.06809560   14.77343573   11.48158086
 C   12.24889092   14.49477578   11.04381847
 C   10.79940183   14.30360654   11.46934591
 C   9.98644268   15.59301693   11.29386588
 O   10.27505627   16.35136486   10.36819971
 O   9.05758036   15.74904200   12.11270225
 H   13.25046693   17.70468495   11.27635500
 H   12.27903417   16.04812596   12.56482231
 H   12.82605521   13.59553920   11.26263170
 H   12.29572944   14.64579780   9.96325521
 H   10.31827361   13.54228538   10.84728198
 H   10.72680545   13.98604336   12.50915508
 H   13.62746725   16.63631637   10.03212691
 H   12.02157835   16.98287015   10.37199569
 N   14.75972814   16.06950460   13.29542231
 C   14.01547747   16.74260918   14.34477194
 C   13.27463606   17.98120862   13.83058375
 O   13.65111430   18.58734755   12.83068717
 C   15.03146824   17.09997941   15.44121506
 C   14.51100020   17.63935498   16.77105919
 C   13.56392370   16.66458784   17.45879256
 C   15.69758458   17.95562205   17.67902266
 H   15.72489970   15.85213966   13.48460071
 H   13.28486671   16.03874923   14.75670551
 H   15.73022236   17.81658905   15.00253156
 H   15.59859444   16.18576833   15.64688654
 H   13.98457942   18.58075919   16.59330947
 H   14.07224306   15.71343011   17.64296467
 H   13.23279670   17.06135160   18.42125269
 H   12.66718889   16.45632060   16.86701263
 H   15.36385382   18.37985013   18.62848050
 H   16.26372942   17.04707311   17.89394254
 H   16.37245336   18.67504811   17.21076767
 N   12.15684080   18.32166674   14.54601796
 C   11.50035527   19.63736495   14.50260596
 C   10.09434928   19.54436823   15.10448771
 O   9.36881804   20.50995981   15.18011502
 C   11.46836236   20.34913228   13.15052132
 C   10.75863236   19.64219363   11.99959092
 C   9.23241203   19.64492369   12.08463946
 N   8.74748873   18.44582853   12.79836056
 C   7.52651339   18.37400615   13.34635375
 N   6.95807537   19.51504088   13.79893387
 N   6.90679100   17.18896089   13.44868470
 O   9.71758884   18.34737776   15.56432049
 H   10.24393167   17.65570746   15.14010342
 H   12.13349113   17.90607861   15.46769299
 H   12.04966396   20.31126048   15.17611394
 H   12.49138594   20.57396249   12.86633662
 H   10.97632837   21.30971650   13.32675530
 H   11.04209931   20.16655498   11.07833980
 H   11.10672324   18.61425718   11.88948418
 H   8.80206329   19.65731636   11.07895358
 H   8.89155191   20.55173495   12.58895070
 H   9.04402064   17.54998876   12.39126509
 H   7.64035804   20.18056028   14.16035638
 H   6.15492448   19.41439031   14.40204705
 H   5.93471004   17.15838549   13.70726136
 H   7.28294556   16.39158894   12.95701352
