44
46
N         -1.12966       -5.84511       -3.77952
C         -1.89644       -5.59471       -2.50496
C         -1.67077       -6.88307       -1.68493
O         -1.49250       -7.93597       -2.29160
C         -3.38605       -5.40574       -2.79943
H         -1.12875       -6.87499       -3.91020
H         -1.45333       -4.72042       -2.02756
H         -3.93518       -5.25488       -1.86559
H         -3.55268       -4.52389       -3.42708
H         -3.80159       -6.28969       -3.29439
H         -0.13508       -5.50640       -3.66583
H         -1.55096       -5.38324       -4.58905
N         -1.74087       -6.81691       -0.33378
C         -1.83342       -5.63581        0.53623
C         -0.47934       -4.88384        0.55379
O         -0.21421       -4.09519       -0.35688
C         -2.38138       -6.05657        1.90063
H         -1.61336       -7.71722        0.11723
H         -2.52933       -4.92287        0.08509
H         -3.39253       -6.45783        1.79038
H         -2.42276       -5.19983        2.57879
H         -1.76732       -6.83787        2.36685
N          0.38818       -5.15882        1.55525
C          1.65877       -4.43750        1.73335
C          2.81670       -5.36598        1.30559
O          3.42672       -6.02820        2.12195
C          1.83169       -4.00739        3.18820
H          0.11511       -5.78074        2.30515
H          1.59824       -3.56010        1.08753
H          0.99570       -3.37086        3.49144
H          1.89319       -4.87874        3.84618
H          2.76197       -3.44514        3.30619
N          3.09021       -5.51746       -0.05607
C          2.75992       -4.62466       -1.17392
C          1.70712       -5.27721       -2.07807
O          1.29493       -4.75361       -3.10153
C          4.00304       -4.23342       -1.98253
O          1.24129       -6.46506       -1.69234
H          1.70055       -6.69327       -0.85164
H          3.93426       -6.07214       -0.18307
H          2.27010       -3.72448       -0.79861
H          4.51848       -5.12079       -2.36723
H          3.70995       -3.61353       -2.83280
H          4.69640       -3.67112       -1.35174
