21
conf-879
 N  -6.58889426   16.43654023   8.27543159
 C  -7.29114938   17.60361768   8.78088304
 C  -6.39424041   18.35116834   9.77157056
 O  -5.39257668   17.86110551   10.24860639
 C  -8.59037186   17.14301210   9.45879310
 C  -9.56587435   16.54372431   8.48060601
 C  -9.45161806   15.21018599   8.09241518
 C  -10.57981659   17.31784964   7.91216514
 C  -10.32526722   14.65707102   7.16100786
 C  -11.45604593   16.77052206   6.97658855
 C  -11.33046639   15.43794490   6.59756531
 H  -7.56977929   18.30713143   7.98340123
 H  -8.31418900   16.41159016   10.21986457
 H  -9.06729182   17.98119083   9.97318171
 H  -8.65556730   14.60643188   8.51570514
 H  -10.69371981   18.35796818   8.20381479
 H  -10.21401124   13.61741892   6.87440973
 H  -12.23576586   17.39053912   6.54820359
 H  -12.01083999   15.00910666   5.87048149
 H  -5.59538774   16.61028247   8.21741592
 H  -6.93209811   16.20398558   7.35395049
 N  -6.80586382   19.60599202   10.13290322
 C  -5.90831910   20.38283196   10.99984280
 C  -5.92617785   19.90030783   12.45095990
 O  -4.96223210   20.07057122   13.18047808
 C  -6.41555162   21.82804228   10.83165930
 C  -7.85597449   21.66785911   10.34543187
 C  -7.78051518   20.43784400   9.44412887
 H  -4.86981622   20.28706963   10.67222146
 H  -6.32769900   22.40460074   11.75227358
 H  -5.81098684   22.31795995   10.06553457
 H  -8.52280952   21.47396531   11.18747973
 H  -8.22596912   22.54581236   9.81777377
 H  -7.42848247   20.71043638   8.44328228
 H  -8.73975181   19.92869508   9.32680161
 N  -7.10055175   19.35779760   12.87411907
 C  -7.14092104   18.64260127   14.12943902
 C  -7.01125162   17.16298650   13.86819714
 O  -7.41064098   16.60260942   12.87757467
 C  -8.44368048   18.94674009   14.87601658
 C  -8.57450964   18.30234455   16.25250978
 C  -7.50430283   18.75715832   17.22995389
 C  -7.65963021   18.14372680   18.60820880
 N  -7.56450589   16.66096349   18.56323651
 O  -6.42646608   16.50621632   14.89073790
 H  -6.41845799   15.57415324   14.64412097
 H  -7.74743611   19.05830353   12.16509032
 H  -6.27703149   18.97518563   14.70531577
 H  -9.27771843   18.63596340   14.23736585
 H  -8.51202194   20.03413040   14.97376922
 H  -9.55976599   18.55912002   16.65823011
 H  -8.55566552   17.21471642   16.16100627
 H  -7.53850937   19.84654297   17.32872116
 H  -6.51245798   18.50774155   16.84210331
 H  -6.89469539   18.53909901   19.27910636
 H  -8.62928684   18.42498580   19.02651504
 H  -6.81626562   16.37672511   17.93212458
 H  -8.42695661   16.24906183   18.21066471
 H  -7.38504407   16.25746054   19.48289303
