21
conf-607
 N  -8.57837009   16.17617541   14.99864025
 C  -9.35018709   17.04307940   14.13364065
 C  -9.24085212   16.54135383   12.69108678
 O  -8.63846651   15.53072985   12.40087346
 C  -8.83820718   18.47245887   14.29584666
 C  -9.05526225   19.04751416   15.67549977
 C  -8.15569742   19.99684394   16.16525402
 C  -10.12453003   18.67070064   16.48696715
 C  -8.31863000   20.55720993   17.42752325
 C  -10.29463096   19.23257014   17.74919753
 C  -9.39312004   20.17545471   18.22791478
 H  -10.42563338   17.03843880   14.37623630
 H  -7.76442532   18.45652009   14.08627848
 H  -9.29038467   19.12446421   13.54107744
 H  -7.31434366   20.29820633   15.55170454
 H  -10.83572880   17.92956632   16.14151408
 H  -7.60560885   21.29378121   17.78203478
 H  -11.13621098   18.92211775   18.35854538
 H  -9.52665618   20.60900734   19.21239654
 H  -8.69049101   15.21490787   14.70554898
 H  -8.92202293   16.26642841   15.94396624
 N  -9.84655397   17.31907599   11.72906017
 C  -9.86798473   16.74824839   10.36712025
 C  -8.52678268   16.84946265   9.65475138
 O  -8.28128711   16.13465099   8.68370696
 C  -10.98954824   17.53044489   9.66536998
 C  -11.95902173   17.80752582   10.81184193
 C  -11.00994271   18.18117044   11.94953331
 H  -10.11772159   15.68408665   10.41391629
 H  -10.60347244   18.47443434   9.27640941
 H  -11.42467222   16.96601126   8.84132481
 H  -12.67146163   18.60225240   10.59234441
 H  -12.51609851   16.90529822   11.06974399
 H  -11.43530395   18.04220167   12.94188817
 H  -10.72128807   19.23369452   11.85644997
 N  -7.66794078   17.78526152   10.09417831
 C  -6.47807616   18.15964570   9.32958124
 C  -5.35373247   17.13729174   9.52625488
 O  -4.25205838   17.42098142   9.93218216
 C  -6.08827585   19.59242031   9.67964049
 C  -4.79421295   20.11381446   9.05720036
 C  -4.62329030   19.82368709   7.56167723
 C  -3.15547268   19.64673467   7.18184720
 N  -2.62683419   18.34053471   7.64735398
 O  -5.65439394   15.88920605   9.18177399
 H  -6.58663013   15.83162095   8.86325648
 H  -7.95027236   18.35706792   10.86951356
 H  -6.74756314   18.11053604   8.26726864
 H  -6.00805063   19.67053207   10.76787045
 H  -6.93394215   20.21909137   9.37964101
 H  -4.74118479   21.19630860   9.22368454
 H  -3.95561928   19.70162179   9.61270769
 H  -5.06085025   20.63630591   6.97442690
 H  -5.16073728   18.91620225   7.26227276
 H  -3.02899787   19.72076318   6.09878295
 H  -2.56031975   20.45246877   7.62408215
 H  -2.87536761   18.17275349   8.62634021
 H  -1.61148506   18.27921880   7.56142245
 H  -3.04636077   17.57365242   7.12168321
