21
conf-430
 N  -4.20450373  -88.28238397   131.96372012
 C  -3.63862640  -89.19564731   130.96984343
 C  -2.38677270  -88.59579009   130.32153575
 O  -1.63642847  -89.28546946   129.63590548
 C  -3.36784997  -90.61577604   131.47195995
 C  -4.66733213  -91.40322213   131.66919485
 C  -5.28926520  -91.73326807   130.33922300
 O  -6.07001108  -91.03494214   129.73170659
 O  -4.85331371  -92.90884886   129.83721841
 H  -5.30279211  -93.00570889   128.98747032
 H  -3.74515394  -88.42437628   132.85897150
 H  -4.36161355  -89.27565839   130.14599275
 H  -2.81907994  -90.55739563   132.41746546
 H  -2.72353606  -91.12516642   130.75211855
 H  -5.37430578  -90.80981056   132.25254993
 H  -4.47339108  -92.33359239   132.20412308
 H  -5.18607179  -88.47906977   132.09824200
 N  -2.24936072  -87.26833509   130.45103990
 C  -1.34141861  -86.51762927   129.58469940
 C  -2.05395009  -86.24424400   128.24952702
 O  -2.41859704  -85.14054571   127.88331326
 C  -0.89646392  -85.23576181   130.28965878
 C   0.39732257  -84.67754153   129.75996651
 C   1.61771364  -85.11915425   130.27263086
 C   0.42377288  -83.72156457   128.74025111
 C   2.82874992  -84.63366603   129.78815784
 C   1.62937281  -83.22612350   128.24675286
 C   2.83170732  -83.68416024   128.77113494
 O   3.98330221  -83.16496929   128.24988381
 H  -2.96804023  -86.79023017   130.96570285
 H  -0.49018770  -87.18052090   129.41759608
 H  -1.70120728  -84.50395663   130.22049620
 H  -0.76764515  -85.48670171   131.34379244
 H   1.61969277  -85.85557714   131.06821592
 H  -0.50927437  -83.36960124   128.31959784
 H   3.76296126  -84.99560728   130.20437022
 H   1.64667964  -82.48410797   127.45835653
 H   4.73711877  -83.56023685   128.69464935
 N  -2.37304650  -87.37041831   127.55221247
 C  -3.14269906  -87.32961824   126.31920960
 C  -4.41415888  -86.49286910   126.46094129
 O  -4.85195299  -85.79705105   125.58317913
 C  -3.53388857  -88.76746472   125.94543603
 C  -4.43570126  -88.90740858   124.71892327
 C  -5.21096676  -90.23287680   124.69154512
 C  -6.58663507  -90.15724251   125.35053532
 N  -6.55843471  -89.76934343   126.77955830
 O  -5.07963528  -86.66608782   127.62410041
 H  -4.47625455  -87.11387773   128.23773765
 H  -1.98546081  -88.25706125   127.85758791
 H  -2.56052546  -86.85978739   125.51975900
 H  -2.61992002  -89.34642984   125.79248284
 H  -4.01664628  -89.20235698   126.82501810
 H  -3.80961062  -88.83190429   123.82294075
 H  -5.15177412  -88.07876485   124.65064324
 H  -5.37330692  -90.53636890   123.65167912
 H  -4.62034718  -91.02851782   125.15466672
 H  -7.18662613  -89.42138739   124.80461614
 H  -7.09672480  -91.11864691   125.25023050
 H  -7.48784164  -89.79905836   127.20070066
 H  -6.21707137  -88.81378885   126.89792695
 H  -5.95974997  -90.38131319   127.33479675
