21
conf-474
 N  -2.26933721  -13.64108613  -8.72796875
 C  -1.28643320  -12.56679671  -8.41890313
 C   0.09175135  -13.22501129  -8.36260163
 O   0.49711304  -13.85084445  -9.32926619
 C  -1.67563110  -11.78976032  -7.17693139
 H  -2.31067081  -14.30933993  -7.95166876
 H  -1.24240507  -11.88261343  -9.27273976
 H  -1.67975312  -12.42593354  -6.28995004
 H  -2.68044652  -11.37900562  -7.30021021
 H  -0.99256958  -10.95688406  -7.01373070
 H  -1.96047856  -14.15240285  -9.55895384
 H  -3.19987484  -13.25882557  -8.89783103
 N   0.78570362  -13.14541931  -7.19755293
 C   1.94454553  -13.99280915  -6.97549502
 C   1.58782875  -15.48260467  -6.78332782
 O   2.41654514  -16.35438187  -6.99494732
 C   2.75090791  -13.49527078  -5.78186774
 H   0.45031636  -12.55965178  -6.45251206
 H   2.56460017  -13.97101854  -7.87515507
 H   3.62057558  -14.13649723  -5.62828883
 H   3.09448681  -12.47498143  -5.96116162
 H   2.14496053  -13.51274027  -4.87335282
 N   0.33672788  -15.74299722  -6.34540965
 C  -0.15285828  -17.09844334  -6.27740444
 C  -1.65822257  -17.15120786  -6.45125584
 O  -2.32264444  -18.14524232  -6.32878456
 C   0.27181855  -17.79218596  -4.98283952
 O  -2.19583077  -15.96194457  -6.80451481
 H  -3.14838735  -16.10999271  -6.88414745
 H  -0.32550651  -14.99635830  -6.25532248
 H   0.26824092  -17.65985435  -7.12050994
 H  -0.09475313  -18.81719872  -4.97670862
 H   1.36015851  -17.79540140  -4.92143171
 H  -0.12747497  -17.26628671  -4.11376283
