21
conf-669
 N  -2.08678324   13.69622798  -7.43985647
 C  -2.28147572   14.07763998  -8.85626583
 C  -3.77516942   13.96827057  -9.15804182
 O  -4.57281709   14.59609280  -8.48098051
 C  -1.37841045   13.23069054  -9.75291043
 C   0.04212175   13.26337290  -9.27321330
 C   0.83499163   14.38622871  -9.48307199
 C   0.56327136   12.19711850  -8.54779447
 C   2.14339725   14.43479100  -9.00918837
 C   1.87251701   12.23716989  -8.07327965
 C   2.66626848   13.35588109  -8.30240145
 H  -2.79808425   14.11965029  -6.84117877
 H  -2.00672495   15.12911566  -8.98425168
 H  -1.45180520   13.60866383  -10.77298620
 H  -1.71932266   12.19112249  -9.75435614
 H   0.41573938   15.22920648  -10.02209073
 H  -0.06048867   11.33296328  -8.34723355
 H   2.74806412   15.31591047  -9.19007156
 H   2.27436131   11.39151475  -7.52879513
 H   3.68570954   13.38697794  -7.93483065
 H  -2.12626801   12.67491154  -7.34666824
 H  -1.16622132   13.99742430  -7.12463640
 N  -4.17576205   13.09810837  -10.12768447
 C  -5.52944153   12.55565692  -10.09800170
 C  -5.79173775   11.68038941  -8.85685386
 O  -6.92063564   11.53261477  -8.41146258
 C  -5.77902211   11.78099579  -11.39390427
 C  -7.15241709   11.12809573  -11.55846009
 C  -8.27953281   12.14623733  -11.40760088
 C  -7.22170000   10.42944209  -12.91329642
 H  -3.48311307   12.58970896  -10.64608708
 H  -6.22170886   13.39496243  -10.01996736
 H  -5.63053837   12.48476870  -12.21738925
 H  -5.00817671   11.01041529  -11.48379931
 H  -7.26667402   10.37296361  -10.77521434
 H  -8.18116975   12.94112454  -12.15344351
 H  -9.25032215   11.66585444  -11.55213753
 H  -8.27191469   12.59637089  -10.41508768
 H  -7.11756906   11.15841487  -13.72025707
 H  -6.42418491   9.69039725  -13.01568612
 H  -8.17615577   9.91370528  -13.04116645
 N  -4.71184697   11.07171564  -8.32257598
 C  -4.78560885   10.36321299  -7.06784962
 C  -3.36643093   10.40424033  -6.48315733
 O  -2.41679563   10.76946341  -7.16567187
 C  -5.32632776   8.95102294  -7.27637785
 C  -5.72686156   8.26707828  -5.97827434
 N  -5.93177608   6.92934513  -6.06212871
 O  -5.87251783   8.88204030  -4.93184492
 H  -3.78691438   11.29612563  -8.63562966
 H  -5.48283202   10.87944594  -6.40199239
 H  -6.22211889   9.04262658  -7.89920407
 H  -4.61172540   8.34222409  -7.83290775
 H  -6.20711585   6.44256017  -5.22723587
 H  -5.82457729   6.42926190  -6.92593393
 N  -3.23995316   10.01797211  -5.20269119
 C  -1.99214086   10.06199636  -4.45496016
 C  -1.63482005   11.54410482  -4.11145130
 O  -1.00161003   12.20904849  -4.96668501
 C  -0.84193769   9.27440576  -5.07492070
 C   0.30986142   8.97267354  -4.08889056
 C   1.57165700   9.82267093  -4.27408280
 N   1.37643456   11.27166200  -4.06883716
 C   1.25271954   11.84437747  -2.86228745
 N   1.87041407   11.28716241  -1.78971393
 N   0.55168171   12.98371603  -2.73615934
 O  -2.06455114   11.92740025  -3.01732933
 H  -4.08884896   9.79217946  -4.69244792
 H  -2.24886176   9.61810800  -3.48896783
 H  -0.47369433   9.78890528  -5.95887393
 H  -1.25898820   8.32718661  -5.42061913
 H  -0.03537885   9.07475521  -3.05423216
 H   0.60824730   7.92689537  -4.21304166
 H   2.37401162   9.46122284  -3.62476546
 H   1.93688435   9.70765636  -5.29894073
 H   0.71326391   11.67371688  -4.74296706
 H   2.01729830   11.89299927  -0.99426099
 H   2.65378590   10.67863396  -1.98628760
 H   0.16250070   13.16456436  -1.81840050
 H  -0.16968247   13.08240744  -3.45889515
