21
conf-217
 N  -0.94952685   12.39447885  -8.16805526
 C  -0.09266706   12.74598055  -7.02174647
 C   0.26884369   11.44625200  -6.30774996
 O   0.68542608   10.50148121  -6.95325450
 C  -0.77130821   13.80155829  -6.14533197
 C  -1.07722301   15.06349404  -6.90273188
 C  -0.16396683   16.11687265  -6.94354512
 C  -2.26544077   15.18522744  -7.61954776
 C  -0.42985886   17.25977114  -7.69548211
 C  -2.53204359   16.32040582  -8.38066274
 C  -1.61369131   17.36407954  -8.42143153
 H  -1.00816763   13.17609303  -8.81655300
 H   0.84760169   13.16889015  -7.39933591
 H  -0.11702150   14.03735638  -5.30417803
 H  -1.70071343   13.39189427  -5.74268396
 H   0.76182984   16.05223275  -6.38244397
 H  -2.98055644   14.37394961  -7.61612450
 H   0.29389855   18.06705731  -7.71279986
 H  -3.45877603   16.37652184  -8.94083399
 H  -1.81937743   18.25045936  -9.01070347
 H  -0.56526551   11.59426131  -8.67736561
 H  -1.91754511   12.15690090  -7.87804073
 N   0.07494423   11.37919417  -4.95742627
 C  -0.05525528   10.07865721  -4.31968838
 C  -1.38217140   9.35996258  -4.64147330
 O  -1.52337922   8.17293729  -4.39398882
 C   0.09477270   10.16077530  -2.80327078
 C   1.45438608   10.65327270  -2.30457294
 C   1.40745286   10.82291261  -0.78861351
 C   2.57599939   9.69923033  -2.70066396
 H  -0.36078292   12.15955166  -4.49742223
 H   0.72251726   9.43271264  -4.73814502
 H  -0.69543026   10.80461275  -2.40677417
 H  -0.08398763   9.15985333  -2.40220668
 H   1.65851269   11.63178120  -2.74891767
 H   1.19085637   9.86540832  -0.30759712
 H   2.36244786   11.18636587  -0.40152237
 H   0.63274835   11.53377570  -0.49234618
 H   2.40702498   8.71501486  -2.25353905
 H   2.64254219   9.57076502  -3.78432410
 H   3.54183912   10.06819319  -2.34726105
 N  -2.35369036   10.12610193  -5.17808477
 C  -3.53571175   9.56603190  -5.79028598
 C  -3.91057148   10.53937693  -6.91993750
 O  -3.45027931   11.67437928  -6.94387312
 C  -4.63909171   9.37727573  -4.75711700
 C  -5.81556775   8.57381778  -5.29183181
 N  -6.96686221   8.67866925  -4.58368851
 O  -5.72477021   7.86749900  -6.28570484
 H  -2.17167061   11.08140801  -5.41123056
 H  -3.29922318   8.58145963  -6.20271037
 H  -4.19736659   8.82100333  -3.92724677
 H  -4.97056116   10.33974129  -4.36333983
 H  -7.75778447   8.14210741  -4.89380140
 H  -7.02800092   9.23150621  -3.74815038
 N  -4.78043706   10.09171593  -7.83776203
 C  -5.01600098   10.79994110  -9.08220632
 C  -3.66567876   11.52143086  -9.45817723
 O  -3.66909821   12.75026780  -9.43454016
 C  -6.19987293   11.75567425  -9.04925751
 C  -6.83937855   11.96677195  -10.42531940
 C  -5.99501553   12.69466486  -11.47264319
 N  -4.77870490   12.00386899  -11.91716929
 C  -4.73662460   10.79411665  -12.47841961
 N  -5.87913911   10.29767677  -13.01809022
 N  -3.57628847   10.10832827  -12.47688462
 O  -2.78258107   10.74476221  -9.82027503
 H  -5.15195341   9.15290450  -7.73166257
 H  -5.19635328   10.03762029  -9.84494668
 H  -5.89621245   12.70382554  -8.60163196
 H  -6.96048098   11.32554826  -8.39252093
 H  -7.13395646   10.99856954  -10.83226508
 H  -7.75837082   12.54845390  -10.29780913
 H  -6.62203162   12.90767941  -12.34638580
 H  -5.65895441   13.65714518  -11.08907066
 H  -3.90294663   12.36367651  -11.55551332
 H  -5.79937224   9.51539367  -13.65006692
 H  -6.57680590   10.97982498  -13.27729216
 H  -3.60876258   9.13942353  -12.76123231
 H  -2.99829683   10.27731507  -11.64450028
