21
conf-60
 N  -1.38916927   9.67015294  -7.38276596
 C  -2.33389478   8.66521212  -7.90146301
 C  -2.85263985   9.17714103  -9.24248867
 O  -2.06395480   9.58007868  -10.07817878
 C  -3.41457503   8.35475252  -6.86289557
 C  -2.83826819   7.83429687  -5.57582116
 C  -2.66492886   6.46623467  -5.36687752
 C  -2.42132217   8.71699468  -4.58211078
 C  -2.07612517   5.99491513  -4.19491969
 C  -1.82334419   8.25247594  -3.41352772
 C  -1.64828992   6.88711347  -3.21497770
 H  -1.87284201   10.50573457  -7.00129183
 H  -1.78473950   7.73768733  -8.11042401
 H  -4.09960004   7.61210788  -7.27580629
 H  -3.98770100   9.26187394  -6.65706196
 H  -2.99430540   5.75815577  -6.11938315
 H  -2.53015412   9.78280725  -4.72995182
 H  -1.95144187   4.92716005  -4.05286744
 H  -1.49458130   8.96684812  -2.66697399
 H  -1.18558624   6.52192963  -2.30516020
 H  -0.82896903   9.27246813  -6.63245653
 H  -0.74986468   9.98175649  -8.11870041
 N  -4.20331806   9.19709774  -9.44366973
 C  -4.76014816   10.07957716  -10.45660121
 C  -4.69940287   11.57432592  -10.07865669
 O  -4.88834245   12.43771030  -10.92069227
 C  -6.20422673   9.72611771  -10.80075579
 C  -6.41398215   8.33344389  -11.39748190
 C  -7.90879440   8.07044328  -11.55696624
 C  -5.69899811   8.18321202  -12.73584766
 H  -4.80451029   8.94080048  -8.67995549
 H  -4.13088580   9.98928574  -11.34723139
 H  -6.81667115   9.83444351  -9.90108507
 H  -6.56146370   10.47138991  -11.51597364
 H  -6.01098979   7.58958697  -10.70394637
 H  -8.35132531   8.80417634  -12.23588749
 H  -8.09370120   7.07536297  -11.96880160
 H  -8.42851792   8.13897830  -10.59855201
 H  -6.09499747   8.90530582  -13.45624249
 H  -4.62217299   8.35042110  -12.64733477
 H  -5.84976694   7.18162986  -13.14574866
 N  -4.45377833   11.84563365  -8.78058814
 C  -4.08871178   13.16405815  -8.31786622
 C  -3.14313610   12.93168671  -7.12791220
 O  -3.09423138   11.84015105  -6.57396320
 C  -5.33005941   13.97177583  -7.96131191
 C  -5.02275580   15.43848372  -7.69692070
 N  -5.97924921   16.12575203  -7.02555038
 O  -3.98846137   15.96695006  -8.07887080
 H  -4.25267820   11.10471062  -8.13972003
 H  -3.56695712   13.69776234  -9.11678973
 H  -5.99736682   13.91504010  -8.82427886
 H  -5.85416997   13.52400565  -7.11506791
 H  -5.82022218   17.10291031  -6.85380913
 H  -6.84172263   15.69716055  -6.74277128
 N  -2.41743806   13.98354607  -6.71997828
 C  -1.31010471   13.83960757  -5.79331245
 C  -0.69050391   12.41145400  -6.04209824
 O  -0.80018569   11.59418950  -5.13075056
 C  -1.67486144   14.07149792  -4.33416781
 C  -0.49568177   14.57019881  -3.49269896
 C   0.66110666   13.59218182  -3.28019390
 N   1.41522601   13.21142040  -4.48041670
 C   2.05529057   14.05450942  -5.29263481
 N   2.35691670   15.29220748  -4.82358081
 N   2.36403619   13.65659617  -6.54287503
 O  -0.08469876   12.32217937  -7.10947354
 H  -2.54032073   14.86897647  -7.20112936
 H  -0.55658345   14.57341750  -6.09193737
 H  -2.10801479   13.16220589  -3.91322886
 H  -2.45397372   14.83746849  -4.30040161
 H  -0.09854763   15.48108493  -3.94260496
 H  -0.86664982   14.84438135  -2.49951759
 H   1.35422750   14.01875701  -2.54561166
 H   0.29653306   12.65704629  -2.85704554
 H   1.23617921   12.28289196  -4.84498107
 H   3.04488294   15.83126850  -5.32737439
 H   2.40202638   15.38409820  -3.81923635
 H   2.69988927   14.36064565  -7.18488102
 H   1.67425402   13.01581516  -6.95379317
