21
conf-112
 N  -0.51407700   10.85014905  -7.04539911
 C  -0.17051560   10.83888771  -5.61266646
 C  -1.06287291   9.80815069  -4.91256183
 O  -0.62449042   8.71134180  -4.59120961
 C  -0.28755354   12.24004630  -5.01513411
 C   0.71488483   13.20349585  -5.59081972
 C   1.96673284   13.37526871  -4.99797649
 C   0.42547168   13.91898762  -6.75234327
 C   2.91078778   14.23075168  -5.56132494
 C   1.36903319   14.77049386  -7.32519739
 C   2.61603821   14.92777278  -6.73012005
 H  -1.45978269   11.22283559  -7.20517189
 H   0.85492431   10.47994874  -5.48660088
 H  -0.14205703   12.17105919  -3.93691156
 H  -1.29958741   12.62092723  -5.17500906
 H   2.20645812   12.84028299  -4.08536379
 H  -0.53877707   13.79900539  -7.22940008
 H   3.87735812   14.34863611  -5.08402934
 H   1.12171228   15.30598494  -8.23419929
 H   3.35135507   15.59088603  -7.17188298
 H   0.14084157   11.44124135  -7.55095715
 H  -0.46773367   9.91866114  -7.46268957
 N  -2.35651364   10.19369040  -4.70799848
 C  -3.36675025   9.20224139  -4.33246864
 C  -4.52777222   9.36127193  -5.30545631
 O  -4.89466950   8.46719458  -6.04279650
 C  -3.81559241   9.33408762  -2.88237545
 C  -2.73184643   9.06098745  -1.83897727
 C  -3.24499040   9.44845370  -0.45469036
 C  -2.28717152   7.59989177  -1.85704528
 H  -2.68528521   10.96639520  -5.25926305
 H  -2.93413175   8.21702909  -4.50693484
 H  -4.21337176   10.33573542  -2.72250175
 H  -4.64242825   8.63637641  -2.71935766
 H  -1.87410160   9.69148955  -2.06955780
 H  -4.11961328   8.84846001  -0.18943113
 H  -2.47837732   9.28734046   0.30684726
 H  -3.53114045   10.50190949  -0.42646030
 H  -3.13280551   6.94733914  -1.62092381
 H  -1.89197770   7.31100019  -2.83155767
 H  -1.50690867   7.42917092  -1.11097944
 N  -5.10367254   10.61595831  -5.30531537
 C  -5.62565329   11.09696004  -6.57842282
 C  -4.44670972   11.48901388  -7.48939028
 O  -3.34690631   11.77903997  -7.01034960
 C  -6.58778718   12.25903084  -6.35839294
 C  -7.45159299   12.54713581  -7.57909559
 N  -8.05702362   13.75984620  -7.59756576
 O  -7.60523694   11.72865872  -8.47563085
 H  -4.57962241   11.31088983  -4.80048370
 H  -6.17066018   10.27189247  -7.02918645
 H  -7.26024092   11.98179945  -5.54363112
 H  -6.05258156   13.15891053  -6.04275865
 H  -8.64439218   13.97684695  -8.38305980
 H  -7.93382182   14.42853760  -6.85937556
 N  -4.74405628   11.48828696  -8.80478340
 C  -3.85118075   11.86643053  -9.87863392
 C  -2.38390487   11.53833560  -9.41440897
 O  -1.67351662   12.51581816  -9.17877603
 C  -4.02685666   13.31056774  -10.32915888
 C  -3.62617752   13.55470337  -11.78520191
 C  -2.14247324   13.41163554  -12.12415577
 N  -1.58704940   12.06005695  -11.99778865
 C  -2.02088210   10.98103667  -12.65218898
 N  -2.76581326   11.16721155  -13.77188355
 N  -1.71608171   9.75741582  -12.17822235
 O  -2.11231520   10.33741976  -9.44633253
 H  -5.71952272   11.33386682  -9.04112716
 H  -4.07365473   11.20475804  -10.72043894
 H  -3.48623428   13.97486307  -9.65242294
 H  -5.08956619   13.55863235  -10.23523372
 H  -4.19417574   12.88047150  -12.42729884
 H  -3.91981102   14.57323566  -12.06043606
 H  -1.97481567   13.77205766  -13.14604534
 H  -1.53794916   14.03874255  -11.46958580
 H  -0.99806347   11.89071310  -11.19152618
 H  -2.87716217   10.38414295  -14.39828575
 H  -2.65689369   12.06056916  -14.22939299
 H  -2.19063158   8.96760822  -12.59326507
 H  -1.66320211   9.71835142  -11.15285255
