21
conf-234
 N  -4.62771387   0.52857564  -7.77656404
 C  -4.75115104  -0.31257433  -8.98293265
 C  -6.22697015  -0.39786669  -9.39809323
 O  -6.71932719   0.54859924  -10.02193260
 C  -4.09197162  -1.67199047  -8.79208409
 C  -2.60944751  -1.51058004  -8.53721015
 N  -2.13557146  -2.16623985  -7.44777647
 O  -1.90210005  -0.85200278  -9.27946766
 H  -4.62542059  -0.07485293  -6.95400929
 H  -4.24801359   0.19852330  -9.80740184
 H  -4.56734990  -2.21705429  -7.99401304
 H  -4.19281726  -2.24763735  -9.71396197
 H  -1.16017882  -2.05039396  -7.23831030
 H  -2.76639204  -2.55023385  -6.76751858
 H  -3.74664818   1.04392114  -7.78583885
 H  -5.40882712   1.18677343  -7.66225041
 N  -6.93795478  -1.50395624  -9.05071380
 C  -8.21823383  -1.76557243  -9.67119885
 C  -9.28495291  -2.14720316  -8.62910153
 O  -9.70481548  -3.29440607  -8.53484310
 C  -8.10432986  -2.86414417  -10.73313083
 C  -7.11242331  -2.51001913  -11.80177871
 C  -7.41202448  -1.54072413  -12.75987693
 C  -5.85173973  -3.10466453  -11.82769157
 C  -6.47381387  -1.16933453  -13.72039729
 C  -4.90242595  -2.72372599  -12.77064945
 C  -5.21082424  -1.75806571  -13.72503146
 H  -6.61464355  -2.13580042  -8.32976339
 H  -8.51829604  -0.84102142  -10.16462666
 H  -7.82449808  -3.79105335  -10.23570994
 H  -9.09715222  -3.01774696  -11.15746075
 H  -8.39090668  -1.06910454  -12.73368277
 H  -5.60708477  -3.86508816  -11.09325461
 H  -6.73012433  -0.41712993  -14.45764361
 H  -3.92272214  -3.18607083  -12.76065250
 H  -4.47483016  -1.46851149  -14.46599879
 N  -9.75887285  -1.15589115  -7.83739610
 C  -9.17451079   0.15236637  -7.69459184
 C  -8.01963961   0.18717094  -6.69042670
 O  -7.23574381   1.13172294  -6.70323794
 C  -10.23044035   1.18687344  -7.27874865
 C  -10.82674381   0.78351390  -5.94617218
 N  -10.46548354   1.54541984  -4.88238208
 O  -11.57515902  -0.17852039  -5.85409243
 H  -10.49617687  -1.41836673  -7.19219991
 H  -8.73423985   0.45004539  -8.64286304
 H  -11.03164270   1.18778326  -8.01840166
 H  -9.77740147   2.17789109  -7.23524726
 H  -10.77040019   1.23166572  -3.97639721
 H  -9.69856302   2.19414812  -4.95636711
 N  -7.96734086  -0.79680694  -5.76979185
 C  -6.74901142  -0.97649600  -5.02659539
 C  -5.91264021  -2.06510802  -5.67993271
 O  -6.33105396  -2.83177128  -6.49597849
 C  -6.99417048  -1.24423816  -3.54481779
 C  -8.03259986  -2.31188391  -3.21759842
 C  -7.83623594  -3.67645907  -3.88236983
 N  -8.63972731  -3.81112720  -5.09811259
 C  -9.93497281  -4.28144367  -4.98443679
 N  -10.51874262  -4.28209587  -3.84287992
 N  -10.45952138  -4.71251875  -6.18960602
 O  -4.61511214  -2.09410558  -5.31161281
 H  -4.41678148  -1.43091888  -4.64004319
 H  -8.52061903  -1.62735154  -5.90040370
 H  -6.19896643  -0.04353420  -5.13248377
 H  -6.03492438  -1.49708912  -3.08125496
 H  -7.31036881  -0.30105731  -3.08880438
 H  -8.02121927  -2.45626280  -2.13152882
 H  -9.03622629  -1.95838935  -3.46904232
 H  -6.78996142  -3.86499942  -4.11655483
 H  -8.15803710  -4.45981057  -3.19157812
 H  -8.14275739  -4.10114833  -5.92067139
 H  -11.46362610  -4.64728100  -3.94047268
 H  -11.44727621  -4.91181651  -6.16434822
 H  -10.17093253  -4.22680794  -7.03185514
