21
conf-472
 N  -6.39801031  -1.12477976  -11.72086327
 C  -5.52498937  -1.81283087  -10.74989385
 C  -6.32323618  -2.96676970  -10.13356908
 O  -6.87997170  -3.75897498  -10.88608878
 C  -4.91762049  -0.83665503  -9.75943619
 C  -4.05011904   0.22031496  -10.42824166
 N  -3.22422474   0.88007346  -9.57409164
 O  -4.08555159   0.44803886  -11.62765551
 H  -5.82716708  -0.42736128  -12.20586266
 H  -4.70557579  -2.28325249  -11.30393586
 H  -5.69862049  -0.31807228  -9.20312631
 H  -4.30062325  -1.36363980  -9.03060100
 H  -2.74084244   1.68119699  -9.94476783
 H  -3.42290345   0.86890360  -8.58283697
 H  -6.77174918  -1.79735639  -12.39203352
 H  -7.18219378  -0.64752488  -11.24543674
 N  -6.41749839  -3.05412770  -8.78192604
 C  -7.13500455  -4.16169769  -8.18553239
 C  -8.23566754  -3.72454489  -7.21035415
 O  -8.46609867  -4.39338089  -6.20753841
 C  -6.17838632  -5.18360858  -7.53754362
 C  -5.40177866  -4.65006722  -6.35953383
 C  -4.40982527  -3.68676715  -6.52387454
 C  -5.68291533  -5.09902226  -5.07193351
 C  -3.77736311  -3.11722581  -5.42327240
 C  -5.02432157  -4.56788705  -3.97030861
 C  -4.08825884  -3.55246989  -4.13945854
 H  -6.03069071  -2.35619905  -8.17316544
 H  -7.64041342  -4.65294329  -9.01837822
 H  -6.78188388  -6.04009415  -7.23026787
 H  -5.50124077  -5.52943537  -8.32459205
 H  -4.13259441  -3.37854539  -7.52160451
 H  -6.46037524  -5.84715969  -4.93119839
 H  -3.05846367  -2.32174709  -5.57488825
 H  -5.28809220  -4.90704150  -2.97198159
 H  -3.62124933  -3.08682267  -3.27701193
 N  -8.95578292  -2.61017619  -7.50187990
 C  -9.19506022  -2.03824083  -8.80068925
 C  -8.57675356  -0.64958625  -8.99265350
 O  -8.68262816  -0.09673182  -10.08906377
 C  -10.68167694  -1.97449622  -9.16751709
 C  -11.49085562  -0.97086893  -8.36294008
 N  -12.79351485  -1.31474867  -8.18051659
 O  -11.03319089   0.07952539  -7.94977072
 H  -9.57090614  -2.36358514  -6.73519203
 H  -8.72322092  -2.68996538  -9.53674742
 H  -11.12157317  -2.96966363  -9.07130493
 H  -10.76299808  -1.67484691  -10.21400632
 H  -13.37726111  -0.68650743  -7.65820333
 H  -13.17096681  -2.17411543  -8.53137833
 N  -7.88264544  -0.12886018  -7.96315644
 C  -7.43027150   1.24248741  -7.99517401
 C  -6.03467985   1.42487856  -7.38968783
 O  -5.59228170   0.80385268  -6.47766563
 C  -8.33574603   2.19878500  -7.23026807
 C  -8.30279813   2.08074993  -5.70686221
 C  -8.89397586   0.78709824  -5.15313297
 N  -7.92768531  -0.29834412  -5.06618427
 C  -8.36767393  -1.53174404  -4.65426000
 N  -9.62346952  -1.79405736  -4.67271792
 N  -7.36032850  -2.39769481  -4.27513069
 O  -5.32005631   2.45297599  -7.94457982
 H  -5.81000992   2.81948647  -8.68536432
 H  -7.88355467  -0.59732043  -7.07006650
 H  -7.42357818   1.53027085  -9.04485604
 H  -8.03963935   3.21603701  -7.51360557
 H  -9.35978725   2.05967011  -7.58681858
 H  -7.29431284   2.21698470  -5.31352327
 H  -8.90199836   2.90609802  -5.30914185
 H  -9.32943365   0.95742680  -4.16386836
 H  -9.70628001   0.43780267  -5.79055248
 H  -6.94672695  -0.08589948  -5.00724401
 H  -9.78703970  -2.74894470  -4.36057343
 H  -7.62782987  -3.36827942  -4.32460786
 H  -6.44738154  -2.24226199  -4.66494465
