21
conf-771
 N  -6.67696106  -3.57906836  -9.89751170
 C  -7.15356517  -4.53639938  -8.88735862
 C  -7.85680956  -3.84322389  -7.73147214
 O  -8.89462865  -4.29729966  -7.27023771
 C  -6.01159014  -5.38768134  -8.35076677
 C  -5.41684695  -6.29804758  -9.40982348
 N  -4.64874203  -7.30620588  -8.91808796
 O  -5.61271236  -6.13585800  -10.60311040
 H  -7.41268833  -2.90775864  -10.14990588
 H  -7.90023034  -5.19934910  -9.33092181
 H  -5.21623330  -4.74098865  -7.97255907
 H  -6.35933229  -5.97689437  -7.49915159
 H  -4.16491710  -7.89295984  -9.57575550
 H  -4.38822377  -7.32823987  -7.94706152
 H  -5.85520218  -3.08240542  -9.55852296
 H  -6.38877550  -4.13020250  -10.71476468
 N  -7.25240729  -2.73473520  -7.22028573
 C  -7.61080389  -2.29824299  -5.88900822
 C  -7.78640407  -0.77020787  -5.81375092
 O  -7.09193417  -0.09540045  -5.06678308
 C  -6.58136725  -2.76132853  -4.84507840
 C  -6.28802900  -4.23855954  -4.88118149
 C  -7.29198321  -5.17228281  -4.63532319
 C  -5.01201714  -4.70206357  -5.19087174
 C  -7.03306848  -6.53827104  -4.70659625
 C  -4.74448039  -6.06296043  -5.24931912
 C  -5.75290709  -6.99069865  -5.00807727
 H  -6.38271946  -2.40052372  -7.59220539
 H  -8.57980776  -2.75004564  -5.67899741
 H  -5.66210832  -2.19869893  -5.00700078
 H  -6.95957806  -2.46239554  -3.86622377
 H  -8.29336892  -4.82054782  -4.40482140
 H  -4.22651947  -3.98503221  -5.40893360
 H  -7.84031424  -7.24277829  -4.54892115
 H  -3.74986822  -6.40212458  -5.52783989
 H  -5.55301417  -8.05391752  -5.09917016
 N  -8.76438750  -0.20620899  -6.56331748
 C  -9.38377883  -0.78445275  -7.73182949
 C  -8.51394926  -0.62844961  -8.99077109
 O  -8.66715435  -1.39144167  -9.94515696
 C  -10.77958179  -0.20490810  -7.99026415
 C  -10.78980329   1.30768610  -8.13799086
 N  -11.46030512   1.78299598  -9.21362308
 O  -10.26854813   2.04227892  -7.31179190
 H  -8.90583879   0.78517881  -6.43367680
 H  -9.48690869  -1.85513375  -7.56363338
 H  -11.40981535  -0.43719540  -7.13035125
 H  -11.21372923  -0.68585710  -8.86738902
 H  -11.46800407   2.77745496  -9.35983173
 H  -11.83825659   1.16807894  -9.90752620
 N  -7.63515939   0.39177409  -9.00667837
 C  -6.62963857   0.42037881  -10.03419311
 C  -5.34049102  -0.18820166  -9.49686257
 O  -5.11464686  -0.33669657  -8.32470873
 C  -6.38075883   1.81497558  -10.60712900
 C  -5.63953322   2.81207504  -9.71577132
 C  -6.45088179   3.48041624  -8.61684236
 N  -6.66822742   2.66991731  -7.41262958
 C  -7.26976876   3.36860658  -6.36476447
 N  -7.86671293   4.47502560  -6.60882617
 N  -7.11936806   2.74055371  -5.14561841
 O  -4.42974505  -0.55745950  -10.41531723
 H  -4.77184472  -0.40465598  -11.30261127
 H  -7.41923170   0.90574865  -8.16884708
 H  -7.00662701  -0.21910834  -10.83361261
 H  -5.80413639   1.67639765  -11.52917536
 H  -7.34408394   2.23709319  -10.91168153
 H  -4.74384444   2.34983518  -9.28850398
 H  -5.28236695   3.61670523  -10.36715505
 H  -5.95288534   4.41318132  -8.32468881
 H  -7.44510776   3.75468983  -8.97122403
 H  -5.88599924   2.11083416  -7.11832620
 H  -8.28229209   4.83760482  -5.75449381
 H  -7.64613718   3.14440560  -4.38939320
 H  -7.07282749   1.72833490  -5.11101067
