21
conf-84
 N  -10.01049232   0.11631954  -7.78779007
 C  -10.16709290  -1.34591648  -7.77288095
 C  -9.18156148  -1.96106858  -6.76328246
 O  -9.50988469  -2.04289399  -5.57744396
 C  -10.09031317  -1.98619607  -9.16753774
 C  -10.72434958  -1.08692797  -10.19396936
 N  -9.92179435  -0.73685057  -11.25716976
 O  -11.84850599  -0.64121380  -10.04732375
 H  -10.91035153   0.55139002  -7.98686314
 H  -11.16251552  -1.54900899  -7.36701353
 H  -9.07677060  -2.23967968  -9.44832682
 H  -10.65395801  -2.92129183  -9.12695741
 H  -10.42451921  -0.35295379  -12.04361400
 H  -9.13467551  -1.32841420  -11.46073651
 H  -9.63516192   0.46132715  -6.90190769
 H  -9.36010656   0.42374714  -8.50328911
 N  -7.97312922  -2.38256033  -7.22687345
 C  -7.17686988  -3.28941492  -6.41984678
 C  -5.68824345  -2.92185443  -6.38945997
 O  -4.84945416  -3.64671537  -6.91146631
 C  -7.34656335  -4.74022569  -6.89726688
 C  -8.77332523  -5.19875963  -6.96586352
 C  -9.55590114  -5.29247273  -5.81715092
 C  -9.35051199  -5.52025340  -8.19404932
 C  -10.88719760  -5.69661079  -5.89109648
 C  -10.68257692  -5.91734451  -8.27575272
 C  -11.45756773  -6.00630254  -7.12270092
 H  -7.61142881  -2.00489019  -8.09114480
 H  -7.57461784  -3.20817331  -5.40589511
 H  -6.89028754  -4.83186382  -7.88680879
 H  -6.76662752  -5.37648373  -6.22756564
 H  -9.11651790  -5.03019031  -4.85952486
 H  -8.75160742  -5.45134727  -9.09677173
 H  -11.47566925  -5.76109322  -4.98348751
 H  -11.11160992  -6.15279308  -9.24295220
 H  -12.49346482  -6.31835202  -7.18196902
 N  -5.31010098  -1.80963400  -5.71803757
 C  -6.19198422  -0.75385419  -5.26664420
 C  -6.68918081   0.13745488  -6.40493455
 O  -7.81222187   0.61952637  -6.39417335
 C  -5.49898425   0.08079929  -4.18269676
 C  -4.28326226   0.85091577  -4.67494302
 N  -4.00955779   1.99794227  -4.01378303
 O  -3.59378219   0.43801365  -5.60107887
 H  -4.33084982  -1.58286194  -5.82170284
 H  -7.08953027  -1.20201160  -4.84369545
 H  -5.15783855  -0.61080373  -3.41067620
 H  -6.21618966   0.76384596  -3.72262588
 H  -3.22055934   2.54259224  -4.31559780
 H  -4.58268458   2.32260515  -3.25613831
 N  -5.82170768   0.35173804  -7.42241336
 C  -6.21601314   1.22842007  -8.49417816
 C  -7.23465653   0.51162850  -9.35856693
 O  -7.34987185  -0.68371501  -9.43808656
 C  -4.99748903   1.78648735  -9.24720151
 C  -3.85451967   0.84682136  -9.61986387
 C  -4.00126378  -0.06229140  -10.84105387
 N  -4.81489404  -1.23809059  -10.64999968
 C  -4.41580516  -2.25411123  -9.81609446
 N  -3.23620777  -2.24643873  -9.31217147
 N  -5.36203176  -3.27167098  -9.69364284
 O  -8.01420553   1.35167401  -10.03319756
 H  -8.60315987   0.78560196  -10.57523741
 H  -4.84518892   0.23419713  -7.21449753
 H  -6.76070550   2.07850942  -8.07454642
 H  -5.34829667   2.32375358  -10.13311028
 H  -4.58019692   2.54230343  -8.57338728
 H  -2.98337604   1.48251061  -9.81695895
 H  -3.57281519   0.21275383  -8.77688314
 H  -4.40088281   0.48784532  -11.69719163
 H  -3.00156555  -0.42135127  -11.10398618
 H  -5.80380624  -1.14613384  -10.79792031
 H  -3.10549556  -3.09048401  -8.75608969
 H  -5.19949622  -3.82308017  -8.86775796
 H  -6.32273467  -2.97894063  -9.77610146
