21
conf-962
 N  -6.99326414   1.69303017  -9.05440996
 C  -6.57122117   1.48493204  -7.65971892
 C  -5.72413891   0.21178138  -7.61914100
 O  -4.57420267   0.26920694  -8.06328170
 C  -7.73623483   1.47813896  -6.68867028
 C  -8.53015988   2.77514414  -6.69380670
 N  -9.13832820   3.08063676  -5.52344543
 O  -8.64957787   3.46774265  -7.69300461
 H  -7.39596742   0.83251020  -9.45401946
 H  -5.88924781   2.29780100  -7.39011576
 H  -8.42690265   0.68506507  -6.94182444
 H  -7.37424009   1.28052908  -5.67801202
 H  -9.68568037   3.92319451  -5.48148287
 H  -9.04682798   2.50806080  -4.70532410
 H  -7.69258944   2.44640315  -9.07288633
 H  -6.18327906   1.94529089  -9.62161765
 N  -6.27470045  -0.92568064  -7.11382009
 C  -5.40672355  -2.02886336  -6.74639990
 C  -5.89430330  -3.38561086  -7.26315701
 O  -6.37197735  -4.22443291  -6.51010017
 C  -5.19591179  -2.08274029  -5.22896474
 C  -4.59305495  -0.81561837  -4.69638733
 C  -3.25521753  -0.50726955  -4.94705706
 C  -5.36638546   0.09923224  -3.98695248
 C  -2.69986628   0.68774311  -4.49573022
 C  -4.82296765   1.30167913  -3.54560440
 C  -3.48590718   1.59948549  -3.79430496
 H  -7.28105207  -1.05320998  -7.09628381
 H  -4.44544687  -1.81839327  -7.21554965
 H  -6.16031299  -2.27913593  -4.75587371
 H  -4.55234129  -2.93583858  -5.01122739
 H  -2.65536895  -1.21419657  -5.51439954
 H  -6.40679597  -0.13011037  -3.78260629
 H  -1.65725106   0.90488648  -4.69828020
 H  -5.44216762   2.00248581  -2.99928423
 H  -3.06089277   2.53260641  -3.44325470
 N  -5.69735600  -3.65002851  -8.58298013
 C  -5.64976491  -2.64111185  -9.62537101
 C  -7.03549329  -2.03628420  -9.91131963
 O  -7.17703931  -0.84346788  -10.16001069
 C  -5.01015265  -3.19960035  -10.89995974
 C  -5.80928847  -4.32724437  -11.53849419
 N  -5.69986128  -4.43805892  -12.88121326
 O  -6.49597938  -5.08684246  -10.86334016
 H  -6.02847753  -4.56567245  -8.85867546
 H  -5.05336940  -1.80843191  -9.25812211
 H  -4.03047937  -3.59953726  -10.63133956
 H  -4.85094640  -2.39384306  -11.62078182
 H  -6.21548174  -5.17005248  -13.33859011
 H  -5.12282927  -3.81822180  -13.42008055
 N  -8.08246813  -2.88362954  -9.88651192
 C  -9.44155374  -2.37877878  -9.84187549
 C  -9.43751338  -1.22545709  -8.84046962
 O  -9.14731018  -1.39076285  -7.67610062
 C  -10.37911612  -3.50080659  -9.37863606
 C  -11.72668445  -3.04627218  -8.80583409
 C  -12.03049615  -3.73976993  -7.47093168
 N  -11.06523780  -3.39645365  -6.44006565
 C  -10.00357110  -4.20722557  -6.13056990
 N  -9.96810639  -5.42716347  -6.52799761
 N  -9.05775125  -3.60870678  -5.30411608
 O  -9.79674962  -0.01813551  -9.30112003
 H  -9.81155853  -0.01680131  -10.26727581
 H  -7.91169569  -3.87545698  -9.92576277
 H  -9.72991839  -2.00053984  -10.82865932
 H  -10.51819539  -4.21176471  -10.19559591
 H  -9.85235842  -4.04607111  -8.58731113
 H  -11.73867752  -1.96809931  -8.63869394
 H  -12.52777525  -3.25301711  -9.51893049
 H  -13.01712312  -3.42931451  -7.11793033
 H  -12.02810551  -4.82631992  -7.57485329
 H  -10.91758703  -2.40826640  -6.32836852
 H  -9.13598496  -5.87553051  -6.14404589
 H  -8.15170761  -4.04080076  -5.41993498
 H  -8.98738501  -2.60957708  -5.42682619
