21
conf-727
 N  -10.56769052  -3.01566256  -8.53516185
 C  -9.38834745  -3.89691777  -8.61589301
 C  -8.68259354  -3.87991528  -7.25692306
 O  -9.28160571  -4.31777713  -6.27667514
 C  -8.49829443  -3.56166358  -9.79774755
 C  -9.24543062  -3.60120322  -11.11870434
 N  -8.51727848  -3.21137114  -12.21221306
 O  -10.41905270  -3.92873363  -11.21000070
 H  -11.15222991  -3.27128512  -7.73920498
 H  -9.74462351  -4.92222300  -8.74564205
 H  -8.04046087  -2.58858693  -9.67055449
 H  -7.68273048  -4.28878717  -9.85765853
 H  -8.92245228  -3.40975969  -13.11283179
 H  -7.51574783  -3.18041609  -12.14156033
 H  -10.28655112  -2.03541877  -8.42922706
 H  -11.10081483  -3.11121796  -9.40097113
 N  -7.44465305  -3.32710815  -7.17539789
 C  -6.70162640  -3.37158386  -5.93030310
 C  -6.19308261  -1.99112742  -5.49732751
 O  -5.07153745  -1.85752434  -5.02427569
 C  -5.56559698  -4.41073659  -5.96974764
 C  -4.47984920  -4.12093983  -6.97247091
 C  -4.70857372  -4.25463835  -8.33773126
 C  -3.22600394  -3.68890064  -6.54764084
 C  -3.73431554  -3.89961904  -9.26445477
 C  -2.24128009  -3.34611552  -7.46539778
 C  -2.50138592  -3.42628124  -8.82963106
 H  -7.01847010  -2.88583331  -7.96950890
 H  -7.42171066  -3.70050173  -5.17908205
 H  -5.14221083  -4.45831374  -4.96432886
 H  -6.03375312  -5.37910102  -6.17051115
 H  -5.66503157  -4.62994269  -8.67755475
 H  -3.03794987  -3.57765687  -5.48170542
 H  -3.95040487  -3.96729431  -10.32347422
 H  -1.28720512  -2.96436869  -7.11068785
 H  -1.75687085  -3.10321661  -9.54996058
 N  -7.03270751  -0.93321972  -5.65164069
 C  -8.46857607  -0.98504692  -5.57438062
 C  -9.16661687  -0.42425847  -6.82077742
 O  -10.38712695  -0.28275218  -6.81935186
 C  -9.02394434  -0.26928973  -4.33809184
 C  -8.91262509   1.24471001  -4.44563631
 N  -9.78942286   1.93265649  -3.66752128
 O  -8.07942434   1.78827540  -5.15342575
 H  -6.57041330  -0.06130812  -5.43029685
 H  -8.75953185  -2.03445714  -5.51060308
 H  -8.47591598  -0.59170389  -3.45135860
 H  -10.07196794  -0.55049698  -4.20413555
 H  -9.78850745   2.93609941  -3.72461445
 H  -10.50503438   1.46664777  -3.14124969
 N  -8.39240012  -0.19217706  -7.89986374
 C  -8.93603256   0.44747361  -9.07944211
 C  -8.33685895  -0.15267757  -10.32516173
 O  -7.15979299  -0.40705949  -10.45937784
 C  -8.69876251   1.95962767  -9.11147035
 C  -7.26781101   2.43851240  -9.36206047
 C  -6.25057525   2.14855003  -8.26201687
 N  -5.66782758   0.81059162  -8.32473413
 C  -4.81015014   0.44687328  -7.31045887
 N  -4.83611489   1.08109161  -6.19808617
 N  -3.99261108  -0.62428822  -7.61247069
 O  -9.26375169  -0.31341049  -11.29108528
 H  -8.85768671  -0.78836316  -12.03175351
 H  -7.38711378  -0.20286478  -7.80487454
 H  -10.01210197   0.26709021  -9.07491815
 H  -9.33301449   2.35327164  -9.91315020
 H  -9.08229247   2.38135966  -8.17720086
 H  -6.88834259   2.05562584  -10.31077131
 H  -7.31469139   3.52810516  -9.47060880
 H  -5.44623768   2.89285676  -8.29824248
 H  -6.70329682   2.24103299  -7.27415473
 H  -5.53338644   0.37921092  -9.22605588
 H  -4.17594815   0.66868052  -5.54290364
 H  -3.56903628  -1.05952533  -6.81026492
 H  -4.30679309  -1.30264621  -8.28282264
