21
conf-34
 N   14.05360726   17.44191495   13.50349275
 C   13.37149144   18.59922459   14.08220258
 C   13.62262355   19.80671645   13.18284245
 O   14.72533211   20.33280046   13.14083575
 C   13.87511360   18.87207188   15.49402394
 C   13.66955703   17.70220384   16.45744345
 C   14.69168227   16.61422137   16.30624099
 O   15.85058456   16.76236371   16.01022766
 O   14.17635947   15.39250443   16.59323897
 H   14.90836336   14.76565787   16.51387186
 H   12.30076193   18.37688171   14.10625150
 H   13.36067586   19.74941693   15.89636480
 H   14.93471882   19.12798165   15.43884799
 H   13.77110055   18.05927375   17.48772987
 H   12.65949464   17.29403918   16.36544874
 H   13.77855087   17.31672405   12.53393162
 H   15.05451421   17.60189169   13.51780945
 N   12.60290065   20.23478758   12.38243178
 C   11.29508594   19.65235092   12.19787712
 C   11.36221815   18.27770667   11.50191635
 O   12.30097833   17.91659584   10.77914745
 C   10.44449630   20.59633761   11.34974846
 C   10.36664282   22.03467421   11.86614560
 C   9.39035805   22.83056292   11.00554931
 C   9.97120336   22.08702212   13.33690637
 H   12.92686839   20.82969158   11.63537414
 H   10.82139708   19.52377957   13.17780579
 H   9.42908632   20.19810523   11.27656898
 H   10.86550106   20.58428054   10.34202499
 H   11.35993766   22.48728003   11.76316391
 H   9.36268667   23.88069975   11.30616960
 H   9.66643047   22.79203239   9.94867971
 H   8.38042072   22.42443718   11.10578706
 H   9.79949658   23.11853480   13.65451793
 H   9.04557275   21.52613688   13.50290241
 H   10.74589421   21.66773355   13.98167007
 N   10.26448561   17.50394566   11.71931806
 C   10.10722662   16.24699212   11.01462423
 C   8.68628612   15.75919576   11.09362043
 O   8.18084020   14.99284671   10.31437172
 C   11.07815720   15.13544304   11.45197413
 C   10.93643313   14.61415403   12.87162624
 C   11.15112909   15.66431463   13.94813210
 N   11.40877556   15.08900739   15.27164802
 C   10.48126298   14.55897380   16.05684936
 N   9.17649620   14.58807616   15.70455061
 N   10.85014306   13.98595431   17.23372685
 O   8.02812341   16.23750042   12.17814318
 H   7.13427068   15.87594171   12.14260803
 H   9.51355812   17.83191152   12.30050590
 H   10.33646255   16.43738934   9.96347867
 H   12.08670715   15.53182295   11.29800402
 H   10.94305685   14.31033996   10.74679973
 H   9.96373792   14.14453064   13.03370140
 H   11.67206727   13.81849048   13.00458107
 H   10.31259402   16.34900475   14.00422700
 H   12.04465120   16.23491037   13.70759298
 H   12.36959979   15.04707385   15.59437229
 H   8.97029046   14.80507721   14.73980505
 H   8.57174347   13.89344745   16.11891713
 H   10.12846714   13.95144486   17.94187698
 H   11.76266832   14.26122447   17.58460411
