21
conf-446
 N   12.19309812   18.19437072   10.23653429
 C   11.51525524   17.26389628   11.10723067
 C   12.18656315   15.89848914   10.99239053
 O   12.84740056   15.57509407   10.02586665
 C   10.01775501   17.04296743   10.82935096
 C   9.14707970   18.28830939   10.95917081
 C   9.29370554   18.96987034   12.28211910
 O   9.60999612   20.13573479   12.42587679
 O   9.06891306   18.15884506   13.32253373
 H   9.23524039   18.67342256   14.13967524
 H   11.63688335   17.60934706   12.13966698
 H   9.64314363   16.28547970   11.51873073
 H   9.90948282   16.63892876   9.81845554
 H   9.37730559   19.00688892   10.16903101
 H   8.09661113   18.01002441   10.84748843
 H   12.39953121   17.73652635   9.35714700
 H   11.62281165   19.00680638   10.05640731
 N   11.88774289   15.01861025   12.00260590
 C   11.48364229   15.42829979   13.33243157
 C   12.73569338   15.88710632   14.07174238
 O   13.71707282   15.16769060   14.16041776
 C   10.82466618   14.28465386   14.09298575
 C   9.41814647   13.90696434   13.61901192
 C   9.37629210   13.30008496   12.22083638
 C   8.81301593   12.92897613   14.62483262
 H   12.45555262   14.17951200   11.97255612
 H   10.78383660   16.25917745   13.26537186
 H   10.75617306   14.56516192   15.14952417
 H   11.48379656   13.41725370   14.03996354
 H   8.81159774   14.82508399   13.62588483
 H   8.38125349   12.89630739   12.01554746
 H   9.59540336   14.02563070   11.43659297
 H   10.09322988   12.47597997   12.13821192
 H   7.78282219   12.67919658   14.36208715
 H   9.39261484   12.00211529   14.64008127
 H   8.81082998   13.34480989   15.63438828
 N   12.67495030   17.11625042   14.65772865
 C   13.88869797   17.65025522   15.25725519
 C   13.53428475   18.46947879   16.48863820
 O   14.19877746   19.40447657   16.87971185
 C   14.79103107   18.35742878   14.24460560
 C   14.14405301   19.39181036   13.32302273
 C   13.39935044   20.51792641   14.03129154
 N   12.00674113   20.10281670   14.32719062
 C   11.27950781   20.58335166   15.35832065
 N   11.85070903   21.08546372   16.44680443
 N   9.92853590   20.46011599   15.21938866
 O   12.45162452   18.06091369   17.14971490
 H   12.04274914   17.31648117   16.68177785
 H   11.99961858   17.79628792   14.33820636
 H   14.44063023   16.78802817   15.64633364
 H   15.22867466   17.56479390   13.63008622
 H   15.61156840   18.81276282   14.80441615
 H   14.94048667   19.83014975   12.71363818
 H   13.46080738   18.89648529   12.62027323
 H   13.36055777   21.40479058   13.39134684
 H   13.92276120   20.81740423   14.93654566
 H   11.45619391   20.07796583   13.46865092
 H   12.81038354   20.80286908   16.62699769
 H   11.29401553   21.16270303   17.28658090
 H   9.37343293   20.91506293   15.92958463
 H   9.60610539   20.66799274   14.27612867
