70
72
N        -93.63472      -15.13278        4.40787
C        -94.88840      -15.53768        3.66995
C        -95.33098      -14.24071        2.95969
O        -94.52687      -13.72516        2.18719
C        -95.82897      -16.27492        4.63444
C        -95.15922      -17.48861        5.21067
C        -94.76562      -17.66743        6.51831
C        -94.75055      -18.67239        4.49161
C        -94.11736      -19.53098        5.42988
C        -94.86797      -19.09104        3.15340
N        -94.13864      -18.88817        6.65420
C        -93.59819      -20.77905        5.06976
C        -94.35395      -20.32870        2.79121
C        -93.72409      -21.16228        3.74015
H        -93.20241      -15.95880        4.83654
H        -94.56418      -16.21577        2.87589
H        -96.14521      -15.59463        5.43323
H        -96.72258      -16.55794        4.06315
H        -94.91315      -17.02064        7.37300
H        -93.81683      -19.28490        7.52396
H        -95.36788      -18.46712        2.41644
H        -93.11928      -21.42470        5.80036
H        -94.44104      -20.66714        1.76315
H        -93.33432      -22.12566        3.42545
H        -92.99601      -14.68621        3.73967
H        -93.88883      -14.40814        5.16262
N        -96.54397      -13.75034        3.27002
C        -97.07698      -12.49036        2.73812
C        -96.01351      -11.36208        2.81489
O        -95.65374      -10.75554        1.82086
C        -97.65091      -12.62093        1.30672
C        -98.55202      -11.40476        0.99776
C        -98.41842      -13.93952        1.13918
C        -98.86199      -11.23260       -0.49282
H        -97.02626      -14.13789        4.06935
H        -97.90178      -12.23519        3.41333
H        -96.79797      -12.60655        0.61992
H        -99.48992      -11.50860        1.56538
H        -98.06332      -10.49229        1.35268
H        -98.86388      -13.99950        0.14241
H        -97.76797      -14.81107        1.25972
H        -99.23369      -14.02121        1.87104
H        -97.93604      -11.10262       -1.06453
H        -99.48512      -10.34731       -0.65934
H        -99.39775      -12.09305       -0.90813
N        -95.43910      -11.04591        4.03384
C        -95.79761      -11.28380        5.43761
C        -95.60086      -12.77009        5.86428
O        -96.60106      -13.47717        6.08764
C        -97.17101      -10.68465        5.81753
C        -97.65705      -10.88963        7.26682
C        -96.97213      -10.09801        8.39726
N        -95.49706      -10.21723        8.50635
C        -94.77420      -11.33902        8.48488
N        -95.31721      -12.54230        8.72586
N        -93.44511      -11.26718        8.26114
O        -94.37699      -13.13508        6.01459
H        -94.95350      -13.31052        8.15946
H        -94.73402      -10.33421        3.88649
H        -95.01951      -10.73705        5.97457
H        -97.15148       -9.61548        5.56925
H        -97.93164      -11.13806        5.17629
H        -97.67202      -11.96205        7.47206
H        -98.70568      -10.57049        7.31766
H        -97.14753       -9.02877        8.25432
H        -97.42291      -10.36391        9.36143
H        -94.97637       -9.35013        8.53637
H        -96.31244      -12.59591        8.89105
H        -93.09284      -10.48135        7.72987
H        -92.97477      -12.13906        8.05036
